CSC026961121 MCULE-6717375058 MolPort-004-107-668 PubChem-16249115 ZINC000009665764
  DSViewer          3D                             0

 32 34  0  0  0  0  0  0  0  0999 V2000
   96.8568   -4.7940   27.6961 C   0  0
   97.1061   -3.6073   25.5393 C   0  0
   96.7980   -4.7565   24.7933 C   0  0
   96.7836   -4.7076   23.3961 C   0  0
   97.0760   -3.5114   22.7258 C   0  0
   97.0594   -3.4600   21.2530 C   0  0
   96.7077   -4.6546   19.0405 C   0  0  2  0  0  0
   95.4685   -3.9701   18.5536 C   0  0
   94.4639   -2.2107   17.1371 C   0  0
   93.9580   -2.9745   15.9619 C   0  0
   92.4524   -4.8988   15.1647 C   0  0
   91.5501   -5.9128   15.5439 C   0  0
   91.0053   -6.7752   14.5604 C   0  0
   90.1148   -7.7875   14.9314 C   0  0
   89.7615   -7.9534   16.2733 C   0  0
   90.2965   -7.1080   17.2492 C   0  0
   91.1853   -6.0912   16.8872 C   0  0
   91.3605   -6.6198   13.2191 C   0  0
   92.2544   -5.6144   12.8446 C   0  0
   92.7960   -4.7621   13.8098 C   0  0
   96.8232   -6.0779   18.4858 C   0  0
   95.8380   -7.0437   19.1302 C   0  0
   98.2371   -6.5985   18.6622 C   0  0
   97.3815   -2.3641   23.4731 C   0  0
   97.3966   -2.4130   24.8707 C   0  0
   97.1347   -3.6251   26.9373 O   0  0
   95.5921   -2.8693   17.7022 O   0  0
   94.3999   -2.7040   14.8139 O   0  0
   94.3314   -4.3768   18.9217 O   0  0
   97.3048   -2.3754   20.6556 O   0  0
   96.7699   -4.6423   20.4992 N   0  0
   93.0102   -4.0300   16.1654 N   0  0
  1 26  1  0  0  0
  2 26  1  0  0  0
  3  4  1  0  0  0
  5  6  1  0  0  0
  5 24  1  0  0  0
  6 31  1  0  0  0
  7 31  1  0  0  0
  7  8  1  0  0  0
  7 21  1  0  0  0
  8 27  1  0  0  0
  9 27  1  0  0  0
  9 10  1  0  0  0
 10 32  1  0  0  0
 11 12  1  0  0  0
 12 13  1  0  0  0
 13 18  1  0  0  0
 14 15  1  0  0  0
 16 17  1  0  0  0
 19 20  1  0  0  0
 21 22  1  0  0  0
 21 23  1  0  0  0
 25  2  1  0  0  0
 32 11  1  0  0  0
  2  3  2  0  0  0
  4  5  2  0  0  0
  6 30  2  0  0  0
  8 29  2  0  0  0
 10 28  2  0  0  0
 13 14  2  0  0  0
 15 16  2  0  0  0
 17 12  2  0  0  0
 18 19  2  0  0  0
 20 11  2  0  0  0
 24 25  2  0  0  0
M  END
> <rmsd>
0.406143

$$$$
CSC027271905 MCULE-6866195977 MolPort-009-430-377 PubChem-40099601 ZINC000032865467
  SciTegic06052412183D

 32 35  0  0  0  0            999 V2000
   96.7474   -4.8683   27.7507 C   0  0
   97.1925   -3.5420   25.7077 C   0  0
   97.5709   -2.3123   25.1447 C   0  0
   98.2574    0.0395   25.5028 C   0  0
   97.6460   -2.1804   23.7480 C   0  0
   97.3469   -3.2648   22.9140 C   0  0
   96.9682   -4.4947   23.4818 C   0  0
   96.7440   -5.4354   21.3279 C   0  0
   97.4117   -3.1677   21.5167 C   0  0
   97.1542   -4.1898   19.2937 C   0  0
   95.8087   -3.7439   18.7515 C   0  0
   95.8721   -3.6743   17.2386 C   0  0
   94.5584   -3.2393   16.6890 C   0  0
   92.5708   -3.7603   15.3371 C   0  0
   92.0180   -4.9096   14.5630 C   0  0
   91.3006   -5.9398   15.1967 C   0  0
   90.8147   -7.0242   14.4312 C   0  0
   90.1015   -8.0424   15.0642 C   0  0
   89.8774   -7.9795   16.4406 C   0  0
   90.3722   -6.8937   17.1675 C   0  0
   91.0505   -7.0746   13.0556 C   0  0
   91.7708   -6.0512   12.4340 C   0  0
   92.2545   -4.9756   13.1851 C   0  0
   96.8925   -4.6286   24.8691 C   0  0
   97.1215   -3.6615   27.0999 O   0  0
   97.8671   -1.2372   25.9898 O   0  0
   97.7478   -2.0789   20.9718 O   0  0
   93.8301   -4.1178   15.8879 O   0  0
   94.1232   -2.0827   16.9413 O   0  0
   96.6760   -5.5484   22.6796 N   0  0
   97.1101   -4.2589   20.7488 N   0  0
   91.0659   -5.9066   16.5385 N   0  0
  1 25  1  0
  2 25  1  0
  3 26  1  0
  3  5  1  0
  4 26  1  0
  6  7  1  0
  7 30  1  0
  8 31  1  0
  9  6  1  0
 10 31  1  0
 10 11  1  0
 11 12  1  0
 12 13  1  0
 13 28  1  0
 14 28  1  0
 14 15  1  0
 15 16  1  0
 16 17  1  0
 17 21  1  0
 18 19  1  0
 20 32  1  0
 22 23  1  0
 24  2  1  0
 31  9  1  0
  2  3  2  0
  5  6  2  0
  7 24  2  0
  8 30  2  0
  9 27  2  0
 13 29  2  0
 16 32  2  0
 17 18  2  0
 19 20  2  0
 21 22  2  0
 23 15  2  0
M  END
> <Name>
CSC027271905 MCULE-6866195977 MolPort-009-430-377 PubChem-40099601 ZINC000032865467

> <rmsd>
0.385416031

$$$$
CSC027762106 MCULE-2173182314 MolPort-009-451-912 PubChem-45865069
  SciTegic06052412183D

 34 38  0  0  0  0            999 V2000
   94.7908   -5.1963   18.4837 O   0  0
   97.0480   -3.7353   26.7931 O   0  0
   97.6799   -2.0303   20.9105 O   0  0
   95.5029   -4.2358   18.0829 C   0  0
   96.9578   -2.9762   21.3277 C   0  0
   96.9118   -3.2617   22.7852 C   0  0
   96.1227   -4.2808   23.3716 C   0  0
   96.1658   -4.4529   24.7757 C   0  0
   95.3938   -5.4548   25.3838 C   0  0
   94.5807   -6.2856   24.6115 C   0  0
   94.5318   -6.1215   23.2270 C   0  0
   95.2967   -5.1270   22.6136 C   0  0
   96.9829   -3.6138   25.5401 C   0  0
   94.7970   -4.6273   15.6827 C   0  0
   93.3104   -4.3110   15.8133 C   0  0
   92.4819   -5.2584   15.0034 C   0  0
   91.4723   -6.0601   15.4696 C   0  0
   90.9859   -6.7427   14.3888 C   0  0
   89.9378   -7.6527   14.5114 C   0  0
   89.3895   -7.8494   15.7923 C   0  0
   89.8938   -7.1421   16.9054 C   0  0
   90.9526   -6.2293   16.7518 C   0  0
   92.5614   -5.4927   13.6320 C   0  0
   93.0065   -2.8855   15.4713 C   0  0
   92.2715   -0.4839   15.4541 C   0  0
   92.8577   -0.9091   14.2636 C   0  0
   93.2699   -2.2495   14.2668 C   0  0
   96.2542   -3.4631   19.0159 N   0  0
   96.2073   -3.7454   20.3870 N   0  0
   97.7155   -2.6551   24.9228 N   0  0
   97.6797   -2.4875   23.6009 N   0  0
   95.5640   -3.9108   16.6931 N   0  0
   91.6355   -6.4120   13.2579 N   0  0
   92.2729   -1.7956   16.5076 S   0  0
  4 28  1  0
  4 32  1  0
  5  6  1  0
  6  7  1  0
  7  8  1  0
  8 13  1  0
  9 10  1  0
 11 12  1  0
 13 30  1  0
 14 32  1  0
 14 15  1  0
 15 16  1  0
 15 24  1  0
 16 17  1  0
 17 18  1  0
 18 33  1  0
 19 20  1  0
 21 22  1  0
 24 34  1  0
 25 34  1  0
 26 27  1  0
 28 29  1  0
 29  5  1  0
 30 31  1  0
 33 23  1  0
  4  1  2  0
  5  3  2  0
  6 31  2  0
  8  9  2  0
 10 11  2  0
 12  7  2  0
 13  2  2  0
 18 19  2  0
 20 21  2  0
 22 17  2  0
 23 16  2  0
 25 26  2  0
 27 24  2  0
M  END
> <Name>
CSC027762106 MCULE-2173182314 MolPort-009-451-912 PubChem-45865069

> <rmsd>
0.399046928

$$$$
CSC027922291 MCULE-5147217342 MolPort-005-802-981 PubChem-16341109 ZINC000014128654 ZINC14128654
  SciTegic06052412183D

 36 39  0  0  0  0            999 V2000
   93.8337   -3.6372    8.0629 C   0  0
   93.3064   -2.4989    8.9175 C   0  0
   92.5806   -3.7738   10.9110 C   0  0
   91.5865   -5.0803   12.8816 C   0  0
   92.8208   -5.5257   13.3796 C   0  0
   92.8767   -6.3415   14.5125 C   0  0
   91.6952   -6.7230   15.1628 C   0  0
   91.7031   -7.5450   16.3008 C   0  0
   92.9734   -8.0378   16.9118 C   0  0
   94.6902   -7.2372   18.4856 C   0  0
   95.1859   -6.1777   19.3789 C   0  0
   96.3876   -6.3420   20.0831 C   0  0
   96.8525   -5.3318   20.9300 C   0  0
   96.1191   -4.1510   21.0820 C   0  0
   94.9218   -3.9809   20.3792 C   0  0
   94.4572   -4.9905   19.5321 C   0  0
   96.2045   -4.2445   24.2941 C   0  0
   96.6559   -4.7056   25.6822 C   0  0
   98.1971   -3.0522   25.8298 C   0  0
   97.8273   -2.5002   24.4506 C   0  0
   90.4908   -7.8808   16.9030 C   0  0
   89.3001   -7.4021   16.3515 C   0  0
   90.4506   -6.2767   14.6643 C   0  0
   90.4068   -5.4602   13.5305 C   0  0
   92.2976   -2.9698    9.8038 O   0  0
   93.7733   -4.0760   11.1897 O   0  0
   93.4928   -7.0513   17.7914 O   0  0
   95.3467   -8.3061   18.3467 O   0  0
   97.8064   -2.1331   21.4442 O   0  0
   95.5883   -1.9346   22.4687 O   0  0
   97.0542   -3.5935   26.4480 O   0  0
   88.2010   -7.7029   16.8844 O   0  0
   89.3197   -6.6295   15.2685 O   0  0
   91.4943   -4.2453   11.7189 N   0  0
   97.3209   -3.5874   23.6098 N   0  0
   96.7093   -2.8849   22.1453 S   0  0
  1  2  1  0
  2 25  1  0
  3 25  1  0
  3 34  1  0
  5  6  1  0
  7  8  1  0
  9  8  1  0
  9 27  1  0
 10 27  1  0
 10 11  1  0
 12 13  1  0
 14 15  1  0
 16 11  1  0
 17 35  1  0
 17 18  1  0
 18 31  1  0
 19 31  1  0
 19 20  1  0
 20 35  1  0
 21 22  1  0
 22 33  1  0
 23 33  1  0
 23  7  1  0
 24  4  1  0
 34  4  1  0
 36 14  1  0
 36 35  1  0
  3 26  2  0
  4  5  2  0
  6  7  2  0
  8 21  2  0
 10 28  2  0
 11 12  2  0
 13 14  2  0
 15 16  2  0
 22 32  2  0
 23 24  2  0
 36 29  2  0
 36 30  2  0
M  END
> <Name>
CSC027922291 MCULE-5147217342 MolPort-005-802-981 PubChem-16341109 ZINC000014128654 ZINC14128654

> <rmsd>
0.3986063

$$$$
CSC027971784 MCULE-2222638645 MolPort-004-538-482 PubChem-16389285 ZINC000012599611 ZINC12599611
  SciTegic06052412183D

 34 37  0  0  0  0            999 V2000
   93.1322   -3.2998   13.5111 C   0  0
   92.2860   -4.4898   13.7863 C   0  0
   91.5300   -5.0594   12.7584 C   0  0
   90.7384   -6.1771   13.0277 C   0  0
   90.7106   -6.7120   14.3156 C   0  0
   89.9243   -7.8291   14.6009 C   0  0
   89.9062   -8.3539   15.8945 C   0  0
   90.6731   -7.7626   16.9024 C   0  0
   91.4709   -6.6371   16.6339 C   0  0
   92.3578   -6.4074   18.9706 C   0  0
   93.2309   -5.6395   19.8733 C   0  0
   93.9458   -4.5364   19.3889 C   0  0
   94.7759   -3.8040   20.2414 C   0  0
   94.9015   -4.1663   21.5910 C   0  0
   97.5394   -1.4888   23.3967 C   0  0
   97.3959   -2.1479   24.6227 C   0  0
   98.0850   -1.7069   25.7611 C   0  0
   98.9260   -0.5916   25.6618 C   0  0
   99.0760    0.0730   24.4427 C   0  0
   98.3884   -0.3674   23.3081 C   0  0
   98.5811    0.3749   22.0294 C   0  0
   94.1882   -5.2672   22.0746 C   0  0
   93.3575   -6.0003   21.2222 C   0  0
   91.4876   -6.1110   15.3319 C   0  0
   92.2535   -6.0193   17.6248 O   0  0
   91.7177   -7.3995   19.4155 O   0  0
   95.7230   -3.4556   22.4709 O   0  0
   97.6112   -2.4930   20.9235 O   0  0
   95.7250   -1.0199   21.4946 O   0  0
   98.6118   -1.9500   28.1287 O   0  5
   97.1847   -3.3821   27.1094 O   0  0
   96.6464   -2.0924   22.0043 S   0  0
   97.9330   -2.3871   27.0143 N   0  3
   92.2500   -5.0213   15.0382 N   0  0
  1  2  1  0
  2 34  1  0
  3  4  1  0
  5  6  1  0
  7  8  1  0
  9 25  1  0
  9 24  1  0
 10 25  1  0
 10 11  1  0
 12 13  1  0
 14 27  1  0
 14 22  1  0
 16 17  1  0
 17 33  1  0
 18 19  1  0
 20 15  1  0
 21 20  1  0
 23 11  1  0
 24  5  1  0
 32 27  1  0
 32 15  1  0
 33 30  1  0
  2  3  2  0
  4  5  2  0
  6  7  2  0
  8  9  2  0
 10 26  2  0
 11 12  2  0
 13 14  2  0
 15 16  2  0
 17 18  2  0
 19 20  2  0
 22 23  2  0
 24 34  2  0
 32 28  2  0
 32 29  2  0
 33 31  2  0
M  CHG  2  30  -1  33   1
M  END
> <Name>
CSC027971784 MCULE-2222638645 MolPort-004-538-482 PubChem-16389285 ZINC000012599611 ZINC12599611

> <rmsd>
0.356035382

$$$$
CSC028059277 MCULE-8870272931 MolPort-044-405-574 PubChem-3440402 ZINC000254838415
  SciTegic06052412183D

 39 43  0  0  0  0            999 V2000
   97.5313   -5.3021   25.9612 O   0  0
   97.4376   -2.5097   20.9599 O   0  5
   96.8287   -2.2833   18.7986 O   0  0
   95.9357   -8.0240   22.7627 O   0  0
   93.6570   -7.2287   23.1886 O   0  0
   97.3441   -3.3449   27.1162 O   0  0
   96.8595   -4.1198   26.2480 C   0  0
   95.5967   -3.7621   25.5566 C   0  0
   95.0241   -4.5647   24.5392 C   0  0
   95.0915   -5.9586   21.3208 C   0  0
   95.8704   -4.8110   21.1659 C   0  0
   95.9112   -4.1188   19.9459 C   0  0
   95.1414   -4.6011   18.8545 C   0  0
   93.3897   -5.0200   16.4461 C   0  0
   92.5534   -5.3023   15.2485 C   0  0
   92.7382   -4.6517   13.9963 C   0  0
   91.8974   -4.9796   12.9016 C   0  0
   92.0651   -4.3493   11.6650 C   0  0
   93.0627   -3.3887   11.4950 C   0  0
   93.8976   -3.0548   12.5614 C   0  0
   93.7354   -3.6811   13.7994 C   0  0
   90.8938   -5.9329   13.0425 C   0  0
   90.7006   -6.5755   14.2604 C   0  0
   91.5235   -6.2666   15.3708 C   0  0
   91.2949   -6.9395   16.5855 C   0  0
   90.2790   -7.8919   16.6940 C   0  0
   89.4764   -8.1877   15.5905 C   0  0
   89.6868   -7.5308   14.3767 C   0  0
   94.3721   -5.7631   19.0257 C   0  0
   94.3448   -6.4362   20.2463 C   0  0
   93.8268   -4.1552   23.9306 C   0  0
   93.1970   -2.9722   24.3160 C   0  0
   93.7570   -2.1811   25.3169 C   0  0
   94.9464   -2.5744   25.9313 C   0  0
   95.6609   -5.7783   24.1186 N   0  0
   96.7351   -2.9385   19.8566 N   0  3
   95.1786   -3.9231   17.5838 N   0  0
   94.3832   -4.1898   16.4510 N   0  0
   95.0611   -6.8058   22.8566 S   0  0
  7  1  1  0
  7  8  1  0
  9 35  1  0
  9 31  1  0
 11 12  1  0
 12 36  1  0
 13 37  1  0
 13 29  1  0
 14 15  1  0
 15 16  1  0
 16 17  1  0
 17 22  1  0
 18 19  1  0
 20 21  1  0
 23 24  1  0
 24 25  1  0
 26 27  1  0
 28 23  1  0
 30 10  1  0
 32 33  1  0
 34  8  1  0
 36  2  1  0
 37 38  1  0
 39 35  1  0
 39 10  1  0
  7  6  2  0
  8  9  2  0
 10 11  2  0
 12 13  2  0
 14 38  2  0
 17 18  2  0
 19 20  2  0
 21 16  2  0
 22 23  2  0
 24 15  2  0
 25 26  2  0
 27 28  2  0
 29 30  2  0
 31 32  2  0
 33 34  2  0
 36  3  2  0
 39  4  2  0
 39  5  2  0
M  CHG  2   2  -1  36   1
M  END
> <Name>
CSC028059277 MCULE-8870272931 MolPort-044-405-574 PubChem-3440402 ZINC000254838415

> <rmsd>
0.360402942

$$$$
CSC090497992 MCULE-4114197439
  SciTegic06052412183D

 29 32  0  0  0  0            999 V2000
   92.6432   -3.9611   12.6595 C   0  0
   92.0222   -4.9552   13.5795 C   0  0
   90.6623   -4.9866   13.8916 C   0  0
   90.5581   -6.0484   14.7716 C   0  0
   89.4353   -6.5502   15.4256 C   0  0
   89.6167   -7.6480   16.2861 C   0  0
   90.8981   -8.2106   16.4721 C   0  0
   92.0145   -7.6831   15.7993 C   0  0
   91.8023   -6.5953   14.9511 C   0  0
   94.1469   -6.1724   14.1716 C   0  0
   94.8280   -5.4049   15.2515 C   0  0
   95.4560   -5.3404   17.7358 C   0  0
   95.4234   -6.0348   18.9489 C   0  0
   95.9661   -5.4663   20.1047 C   0  0
   96.5491   -4.1925   20.0617 C   0  0
   96.5813   -3.4956   18.8459 C   0  0
   96.0384   -4.0653   17.6910 C   0  0
   97.1210   -3.5940   21.2804 C   0  0
   97.6107   -3.7712   23.7600 C   0  0
   96.6644   -2.6991   24.3022 C   0  0
   97.1131   -2.3063   25.7101 C   0  0
   98.1178   -4.2840   26.1406 C   0  0
   97.7795   -4.8942   24.7800 C   0  0
   92.7089   -5.9328   14.2173 N   0  0
   94.8865   -5.9564   16.5732 N   0  0
   97.0904   -4.3169   22.5156 N   0  0
   95.3109   -4.2709   14.9932 O   0  0
   97.6417   -2.4457   21.2352 O   0  0
   97.0784   -3.4307   26.5554 O   0  0
  1  2  1  0
  3  4  1  0
  5  6  1  0
  7  8  1  0
  9 24  1  0
  9  4  1  0
 10 24  1  0
 10 11  1  0
 11 25  1  0
 13 14  1  0
 15 16  1  0
 15 18  1  0
 17 12  1  0
 18 26  1  0
 19 26  1  0
 19 20  1  0
 20 21  1  0
 21 29  1  0
 22 29  1  0
 22 23  1  0
 23 19  1  0
 24  2  1  0
 25 12  1  0
  2  3  2  0
  4  5  2  0
  6  7  2  0
  8  9  2  0
 11 27  2  0
 12 13  2  0
 14 15  2  0
 16 17  2  0
 18 28  2  0
M  END
> <Name>
CSC090497992 MCULE-4114197439

> <rmsd>
0.410063535

$$$$
CSC090825316
  SciTegic06052412183D

 27 30  0  0  0  0            999 V2000
   97.0680   -3.6428   26.6223 N   0  0
   97.7869   -2.0730   21.2759 N   0  0
   95.6686   -4.4513   19.4104 N   0  0
   94.2255   -6.0962   18.2747 N   0  0
   90.8493   -6.4778   16.6758 N   0  0
   97.0502   -3.0499   25.2981 C   0  0
   98.4172   -2.4580   24.9867 C   0  0
   98.3938   -1.7277   23.6430 C   0  0
   97.6779   -2.4957   22.5641 C   0  0
   97.1414   -2.7001   20.2564 C   0  0
   96.3316   -3.8097   20.5082 C   0  0
   94.8088   -5.5957   19.4788 C   0  0
   93.3174   -7.2355   18.2515 C   0  0
   91.9606   -6.8553   18.8311 C   0  0
   91.2385   -5.8565   17.9353 C   0  0
   89.9367   -7.4652   16.5178 C   0  0
   89.8086   -7.7959   15.1646 C   0  0
   90.6893   -6.9513   14.5169 C   0  0
   90.9795   -6.8367   13.1594 C   0  0
   91.9328   -5.8760   12.7753 C   0  0
   92.5641   -5.0646   13.7431 C   0  0
   92.2499   -5.2039   15.1067 C   0  0
   91.3000   -6.1657   15.4536 C   0  0
   96.1946   -4.2569   21.8275 C   0  0
   96.8527   -3.5986   22.8666 C   0  0
   96.7187   -4.1223   24.2665 C   0  0
   94.5679   -6.1607   20.5802 O   0  0
  3 12  1  0
  5 16  1  0
  6  1  1  0
  6  7  1  0
  7  8  1  0
  8  9  1  0
 10  2  1  0
 11  3  1  0
 11 24  1  0
 12  4  1  0
 13  4  1  0
 13 14  1  0
 14 15  1  0
 15  5  1  0
 17 18  1  0
 19 20  1  0
 21 22  1  0
 23  5  1  0
 23 18  1  0
 25  9  1  0
 26 25  1  0
 26  6  1  0
  9  2  2  0
 10 11  2  0
 12 27  2  0
 16 17  2  0
 18 19  2  0
 20 21  2  0
 22 23  2  0
 24 25  2  0
M  END
> <Name>
CSC090825316

> <rmsd>
0.401534379

$$$$
CSC028345086 MCULE-1983503252 MolPort-009-179-291 PubChem-32105449 ZINC000024795691
  SciTegic06052412183D

 34 37  0  0  0  0            999 V2000
   89.5339   -8.8691   17.1770 C   0  0
   90.1915   -7.8942   16.2641 C   0  0
   91.5606   -7.8024   16.0405 C   0  0
   92.6434   -8.6007   16.6910 C   0  0
   93.1237   -7.9105   17.9202 C   0  0
   94.6520   -6.0846   18.8687 C   0  0
   94.2366   -6.2434   20.1978 C   0  0
   94.7779   -5.4499   21.2134 C   0  0
   94.3077   -5.6561   22.6128 C   0  0
   95.7480   -4.4786   20.9080 C   0  0
   97.2711   -2.6217   21.8288 C   0  0
   97.7437   -1.9114   23.0301 C   0  0
   97.2619   -2.2677   24.2976 C   0  0
   97.7093   -1.5983   25.4415 C   0  0
   95.4642   -1.3749   27.2408 C   0  0
   98.6408   -0.5619   25.3204 C   0  0
   99.1264   -0.2001   24.0613 C   0  0
   98.6801   -0.8728   22.9203 C   0  0
   96.1603   -4.3238   19.5761 C   0  0
   95.6160   -5.1201   18.5658 C   0  0
   91.7118   -6.7621   15.1569 C   0  0
   90.4532   -6.2906   14.8806 C   0  0
   90.2509   -5.2203   14.0117 C   0  0
   91.3850   -4.6337   13.4207 C   0  0
   92.6785   -5.1199   13.7097 C   0  0
   92.8552   -6.2005   14.5917 C   0  0
   94.1141   -6.8805   17.8046 N   0  0
   96.2991   -3.6703   21.9608 N   0  0
   89.5029   -6.9706   15.5503 N   0  0
   97.0914   -2.0542   27.0188 S   0  0
   97.0327   -3.5524   27.1220 O   0  0
   98.0000   -1.5272   28.0937 O   0  0
   97.7206   -2.3008   20.6950 O   0  0
   92.6307   -8.2218   19.0366 O   0  0
  1  2  1  0
  3 21  1  0
  4  3  1  0
  4  5  1  0
  5 27  1  0
  7  8  1  0
  9  8  1  0
 10 28  1  0
 10 19  1  0
 11 12  1  0
 13 14  1  0
 16 17  1  0
 18 12  1  0
 20  6  1  0
 22 23  1  0
 22 29  1  0
 24 25  1  0
 26 21  1  0
 27  6  1  0
 28 11  1  0
 29  2  1  0
 30 14  1  0
 30 15  1  0
  2  3  2  0
  5 34  2  0
  6  7  2  0
  8 10  2  0
 11 33  2  0
 12 13  2  0
 14 16  2  0
 17 18  2  0
 19 20  2  0
 21 22  2  0
 23 24  2  0
 25 26  2  0
 30 31  2  0
 30 32  2  0
M  END
> <Name>
CSC028345086 MCULE-1983503252 MolPort-009-179-291 PubChem-32105449 ZINC000024795691

> <rmsd>
0.402422071

$$$$
CSC081775889
  SciTegic06052412183D

 28 31  0  0  0  0            999 V2000
   97.2749   -4.7362   27.0150 C   0  0
   97.0641   -3.5109   25.1944 C   0  0
   96.8108   -2.1366   24.6049 C   0  0
   96.4238   -2.1434   21.0338 C   0  0
   95.9030   -1.9477   22.2795 C   0  0
   94.4629   -1.6540   22.5567 C   0  0
   93.8176   -1.0632   21.2932 C   0  0
   95.6460   -1.9657   19.7717 C   0  0
   93.2240   -2.3709   19.2256 C   0  0
   92.6435   -3.6747   17.1474 C   0  0
   93.3671   -4.3970   16.0261 C   0  0
   92.3869   -5.0151   15.0811 C   0  0
   91.5945   -6.1202   15.4490 C   0  0
   90.9305   -7.7338   17.0656 C   0  0
   90.0239   -8.3008   16.1665 C   0  0
   89.9055   -7.7651   14.8831 C   0  0
   90.6902   -6.6724   14.5133 C   0  0
   90.5881   -6.1308   13.2303 C   0  0
   91.3842   -5.0411   12.8685 C   0  0
   92.2802   -4.4888   13.7886 C   0  0
   96.9767   -3.4444   26.5837 O   0  0
   91.9997   -2.2195   19.4900 O   0  0
   96.8877   -2.1949   23.1537 N   0  0
   97.9788   -2.4956   22.4610 N   0  0
   97.7251   -2.4699   21.1554 N   0  0
   94.2200   -1.8191   20.0967 N   0  0
   93.6168   -3.0978   18.0585 N   0  0
   91.6893   -6.6678   16.6934 N   0  0
  1 21  1  0
  2 21  1  0
  2  3  1  0
  3 23  1  0
  4 25  1  0
  5 23  1  0
  6  5  1  0
  6  7  1  0
  7 26  1  0
  8 26  1  0
  8  4  1  0
  9 27  1  0
 10 27  1  0
 10 11  1  0
 11 12  1  0
 12 13  1  0
 14 28  1  0
 15 16  1  0
 17 18  1  0
 17 13  1  0
 19 20  1  0
 23 24  1  0
 26  9  1  0
  4  5  2  0
  9 22  2  0
 13 28  2  0
 14 15  2  0
 16 17  2  0
 18 19  2  0
 20 12  2  0
 24 25  2  0
M  END
> <Name>
CSC081775889

> <rmsd>
0.390411407

$$$$
CSC078507691 MCULE-9022409398
  SciTegic06052412183D

 28 31  0  0  0  0            999 V2000
   95.2768   -4.2348   15.0405 O   0  0
   97.6362   -2.4100   21.2700 O   0  0
   97.1214   -3.4348   26.5872 O   0  0
   94.8476   -5.3931   15.2871 C   0  0
   94.2018   -6.1798   14.1999 C   0  0
   92.7244   -5.9723   14.2190 C   0  0
   92.0171   -4.9998   13.5170 C   0  0
   90.5935   -6.0791   14.7004 C   0  0
   89.5073   -7.5388   16.1836 C   0  0
   90.7426   -8.1497   16.4953 C   0  0
   91.9229   -7.6972   15.8803 C   0  0
   91.8014   -6.6470   14.9761 C   0  0
   95.4976   -5.3339   17.7659 C   0  0
   96.0446   -4.0430   17.7270 C   0  0
   96.5810   -3.4678   18.8821 C   0  0
   96.5779   -4.1752   20.0924 C   0  0
   96.0307   -5.4650   20.1295 C   0  0
   95.4946   -6.0392   18.9733 C   0  0
   97.1422   -3.5703   21.3115 C   0  0
   97.6476   -3.7492   23.7877 C   0  0
   96.6810   -2.7007   24.3401 C   0  0
   97.1281   -2.3054   25.7477 C   0  0
   98.1772   -4.2629   26.1635 C   0  0
   97.8463   -4.8733   24.8012 C   0  0
   90.6933   -5.0728   13.8139 N   0  0
   89.4480   -6.5073   15.2878 N   0  0
   94.9376   -5.9567   16.6021 N   0  0
   97.1337   -4.3001   22.5430 N   0  0
  4 27  1  0
  5  4  1  0
  5  6  1  0
  7 25  1  0
  9 26  1  0
 10 11  1  0
 12  6  1  0
 12  8  1  0
 14 15  1  0
 16 17  1  0
 16 19  1  0
 18 13  1  0
 19 28  1  0
 20 28  1  0
 20 21  1  0
 21 22  1  0
 22  3  1  0
 23  3  1  0
 23 24  1  0
 24 20  1  0
 25  8  1  0
 27 13  1  0
  4  1  2  0
  6  7  2  0
  8 26  2  0
  9 10  2  0
 11 12  2  0
 13 14  2  0
 15 16  2  0
 17 18  2  0
 19  2  2  0
M  END
> <Name>
CSC078507691 MCULE-9022409398

> <rmsd>
0.393983752

$$$$
CSC026516426 MCULE-4285897990 MolPort-044-252-002 PubChem-4791228
  SciTegic06052412183D

 29 33  0  0  0  0            999 V2000
   97.2679   -1.7352   18.6225 C   0  0
   96.9427   -2.5877   19.7997 C   0  0
   95.9892   -3.5954   19.8658 C   0  0
   95.0665   -4.0862   18.8301 C   0  0
   95.0303   -3.5821   17.6018 C   0  0
   94.1005   -4.0917   16.5921 C   0  0
   92.7861   -4.5636   14.6017 C   0  0
   92.1313   -4.6976   13.3801 C   0  0
   91.1310   -5.6755   13.2700 C   0  0
   90.8064   -6.4927   14.3687 C   0  0
   91.4891   -6.3367   15.6049 C   0  0
   92.4843   -5.3568   15.6994 C   0  0
   91.1566   -7.1561   16.6907 C   0  0
   90.1561   -8.1231   16.5551 C   0  0
   89.4846   -8.2761   15.3376 C   0  0
   89.8084   -7.4631   14.2467 C   0  0
   96.0812   -4.0698   21.1572 C   0  0
   97.4786   -3.5300   23.1886 C   0  0
   96.3412   -3.2621   24.1648 C   0  0
   98.0736   -5.1802   24.9336 C   0  0
   98.0511   -4.9285   23.4349 C   0  0
   94.0081   -3.4910   15.0135 S   0  0
   96.7195   -4.2484   25.5766 S   0  0
   93.2167   -5.0967   16.8146 N   0  0
   97.0398   -3.3713   21.8056 N   0  0
   97.5656   -2.4720   20.9888 N   0  0
   95.1147   -5.3665   21.8507 Cl  0  0
   95.5666   -5.1373   25.9472 O   0  0
   97.1409   -3.4021   26.7440 O   0  0
  1  2  1  0
  2  3  1  0
  3  4  1  0
  5  6  1  0
  6 22  1  0
  7 22  1  0
  8  9  1  0
 10 11  1  0
 11 13  1  0
 12 24  1  0
 12  7  1  0
 14 15  1  0
 16 10  1  0
 17 27  1  0
 17 25  1  0
 18 25  1  0
 18 19  1  0
 19 23  1  0
 20 21  1  0
 21 18  1  0
 23 20  1  0
 25 26  1  0
  2 26  2  0
  3 17  2  0
  4  5  2  0
  6 24  2  0
  7  8  2  0
  9 10  2  0
 11 12  2  0
 13 14  2  0
 15 16  2  0
 23 28  2  0
 23 29  2  0
M  END
> <Name>
CSC026516426 MCULE-4285897990 MolPort-044-252-002 PubChem-4791228

> <rmsd>
0.379213065

$$$$
CSC028092361 MCULE-1234871004 MolPort-044-414-199 PubChem-4159974
  SciTegic06052412183D

 38 41  0  0  0  0            999 V2000
   95.7554   -2.6849   23.1471 C   0  0
   96.6953   -2.4096   22.0852 C   0  0
   94.5963   -3.3310   22.9342 C   0  0
   94.0548   -3.8739   21.6698 C   0  0
   92.7979   -4.4831   21.7073 C   0  0
   92.2337   -5.0163   20.5461 C   0  0
   92.9189   -4.9522   19.3224 C   0  0
   94.1816   -4.3398   19.2848 C   0  0
   94.7409   -3.8079   20.4497 C   0  0
   91.1688   -6.1719   17.9983 C   0  0
   90.6895   -6.6028   16.6573 C   0  0
   89.5225   -7.3827   16.6003 C   0  0
   89.0067   -7.8301   15.3840 C   0  0
   89.6487   -7.5055   14.1916 C   0  0
   90.8083   -6.7311   14.2094 C   0  0
   91.4360   -6.4123   13.0017 C   0  0
   92.5949   -5.6342   12.9966 C   0  0
   93.1305   -5.1710   14.1994 C   0  0
   92.5085   -5.4857   15.4099 C   0  0
   91.3434   -6.2688   15.4410 C   0  0
   96.0844   -2.2357   24.5146 C   0  0
   97.8675   -1.2521   26.0463 C   0  0
   98.4553   -0.0023   26.2648 C   0  0
   99.0303    0.3073   27.4985 C   0  0
   99.0358   -0.6364   28.5331 C   0  0
   98.4786   -1.9006   28.3066 C   0  0
   97.9034   -2.2263   27.0669 C   0  0
   97.4140   -4.5389   27.8108 C   0  0
   97.4514   -2.1863   21.2377 N   0  0
   97.3023   -1.5186   24.7565 N   0  0
   99.6179   -0.3213   29.8052 N   0  3
   95.1699   -4.2165   17.6543 Br  0  0
   92.3792   -5.4720   18.1334 O   0  0
   90.4795   -6.4580   19.0161 O   0  0
   95.2758   -2.4437   25.4612 O   0  0
   97.4008   -3.5109   26.8294 O   0  0
   99.6248   -1.2550   30.8160 O   0  5
  100.1219    0.8022   30.0117 O   0  0
  1  2  1  0
  1 21  1  0
  3  4  1  0
  5  6  1  0
  7  8  1  0
  7 33  1  0
  8 32  1  0
  9  4  1  0
 10 33  1  0
 10 11  1  0
 12 13  1  0
 14 15  1  0
 16 17  1  0
 18 19  1  0
 20 11  1  0
 20 15  1  0
 21 30  1  0
 23 24  1  0
 25 26  1  0
 25 31  1  0
 27 36  1  0
 27 22  1  0
 28 36  1  0
 30 22  1  0
 31 37  1  0
  1  3  2  0
  4  5  2  0
  6  7  2  0
  8  9  2  0
 10 34  2  0
 11 12  2  0
 13 14  2  0
 15 16  2  0
 17 18  2  0
 19 20  2  0
 21 35  2  0
 22 23  2  0
 24 25  2  0
 26 27  2  0
 31 38  2  0
  2 29  3  0
M  CHG  2  31   1  37  -1
M  END
> <Name>
CSC028092361 MCULE-1234871004 MolPort-044-414-199 PubChem-4159974

> <rmsd>
0.414254904

$$$$
CSC027280302 MCULE-8392854146 MolPort-009-432-593 PubChem-40102914 ZINC000032868722 ZINC32868722
  SciTegic06052412183D

 31 33  0  0  0  0            999 V2000
   96.9240   -2.8230   27.8339 C   0  0
   95.8464   -3.3753   25.9893 C   0  0
   95.9474   -3.7971   24.5362 C   0  0
   95.3456   -3.5718   21.3581 C   0  0
   94.2857   -2.7109   21.6607 C   0  0
   93.0593   -2.8510   21.0046 C   0  0
   92.8847   -3.8510   20.0369 C   0  0
   93.9514   -4.7083   19.7351 C   0  0
   95.1770   -4.5689   20.3920 C   0  0
   91.5985   -4.0013   19.3377 C   0  0
   90.2424   -5.1708   17.6454 C   0  0
   90.4330   -6.2191   16.5990 C   0  0
   90.1133   -7.5424   16.9024 C   0  0
   90.3218   -8.5318   15.9387 C   0  0
   91.1532   -6.9739   14.4162 C   0  0
   91.6836   -6.7086   13.1514 C   0  0
   92.0340   -5.4037   12.7904 C   0  0
   92.5950   -5.1614   11.4311 C   0  0
   91.8529   -4.3504   13.7047 C   0  0
   91.3220   -4.6122   14.9710 C   0  0
   90.9684   -5.9183   15.3366 C   0  0
   97.1125   -3.3905   26.5752 O   0  0
   97.7413   -2.4183   21.3965 O   0  0
   97.5923   -4.7149   22.2370 O   0  0
   90.6317   -3.2403   19.6197 O   0  0
   91.4580   -4.9840   18.3555 O   0  0
   90.0317   -9.7276   16.2002 O   0  0
   90.8264   -8.2195   14.7480 O   0  0
   96.6575   -2.7808   23.7761 N   0  0
   96.8911   -3.3861   22.1700 S   0  0
   92.2808   -2.6954   13.2992 Cl  0  0
  1 22  1  0
  2 22  1  0
  2  3  1  0
  3 29  1  0
  5  6  1  0
  7  8  1  0
  7 10  1  0
  9  4  1  0
 10 26  1  0
 11 26  1  0
 11 12  1  0
 13 14  1  0
 14 28  1  0
 15 28  1  0
 16 17  1  0
 18 17  1  0
 19 31  1  0
 19 20  1  0
 21 12  1  0
 21 15  1  0
 30 29  1  0
 30  4  1  0
  4  5  2  0
  6  7  2  0
  8  9  2  0
 10 25  2  0
 12 13  2  0
 14 27  2  0
 15 16  2  0
 17 19  2  0
 20 21  2  0
 30 23  2  0
 30 24  2  0
M  END
> <Name>
CSC027280302 MCULE-8392854146 MolPort-009-432-593 PubChem-40102914 ZINC000032868722 ZINC32868722

> <rmsd>
0.377779067

$$$$
CSC064823121
  SciTegic06052412183D

 28 30  0  0  0  0            999 V2000
   96.6423   -4.1440   27.5694 C   0  0
   96.5372   -3.8589   25.3855 C   0  0
   97.1043   -3.1686   24.1630 C   0  0
   96.6689   -3.0900   21.6781 C   0  0
   95.8706   -3.5507   20.5138 C   0  0
   94.8337   -4.4662   20.7525 C   0  0
   94.0396   -4.9456   19.7100 C   0  0
   94.2635   -4.5205   18.4010 C   0  0
   93.4995   -4.7244   15.9560 C   0  0
   92.5541   -5.3380   14.9817 C   0  0
   91.4949   -6.2129   15.3389 C   0  0
   91.2347   -6.5824   16.6683 C   0  0
   90.1815   -7.4458   16.9796 C   0  0
   89.3699   -7.9535   15.9640 C   0  0
   89.6093   -7.5983   14.6353 C   0  0
   90.6613   -6.7348   14.3162 C   0  0
   91.8830   -5.5634   12.6572 C   0  0
   92.7283   -5.0255   13.6255 C   0  0
   95.2935   -3.6074   18.1468 C   0  0
   96.0973   -3.1185   19.1818 C   0  0
   97.2512   -3.4640   26.5156 O   0  0
   97.6169   -2.2720   21.5346 O   0  0
   94.3793   -3.9238   15.5354 O   0  0
   92.0709   -5.2436   11.3198 O   0  0
   96.3594   -3.5814   22.9858 N   0  0
   93.4268   -5.0346   17.3561 N   0  0
   90.8772   -6.3989   13.0186 N   0  0
   97.3555   -1.9766   18.7277 Cl  0  0
  1 21  1  0
  2 21  1  0
  2  3  1  0
  3 25  1  0
  4  5  1  0
  6  7  1  0
  8 26  1  0
  8 19  1  0
  9 10  1  0
 10 11  1  0
 12 13  1  0
 14 15  1  0
 16 27  1  0
 16 11  1  0
 17 24  1  0
 17 18  1  0
 20 28  1  0
 20  5  1  0
 25  4  1  0
 26  9  1  0
  4 22  2  0
  5  6  2  0
  7  8  2  0
  9 23  2  0
 11 12  2  0
 13 14  2  0
 15 16  2  0
 17 27  2  0
 18 10  2  0
 19 20  2  0
M  END
> <Name>
CSC064823121

> <rmsd>
0.39800936

$$$$
CSC072611297
  SciTegic06052412183D

 27 29  0  0  0  0            999 V2000
   97.0589   -3.5815   26.4701 O   0  0
   99.0368   -2.5356   25.9713 O   0  0
   97.6526   -2.2519   21.3145 O   0  0
   92.7395   -7.7081   19.6015 O   0  0
   91.2559   -5.7802   19.9906 O   0  0
   97.8698   -2.8452   25.6169 C   0  0
   97.3728   -2.4549   24.2704 C   0  0
   97.6188   -3.5829   23.2852 C   0  0
   97.1089   -3.2083   21.9310 C   0  0
   95.9960   -3.9518   21.3087 C   0  0
   95.5348   -3.5940   20.0330 C   0  0
   94.4806   -4.2937   19.4394 C   0  0
   93.8779   -5.3594   20.1147 C   0  0
   94.3299   -5.7201   21.3878 C   0  0
   95.3840   -5.0204   21.9815 C   0  0
   91.5659   -6.4699   16.7680 C   0  0
   91.6214   -6.1575   15.3973 C   0  0
   92.6069   -5.3068   14.8806 C   0  0
   91.7265   -5.5429   12.6860 C   0  0
   90.7238   -6.3964   13.1506 C   0  0
   90.6681   -6.7068   14.5098 C   0  0
   89.6723   -7.5584   14.9924 C   0  0
   89.6177   -7.8682   16.3531 C   0  0
   90.5578   -7.3276   17.2343 C   0  0
   92.5499   -6.2342   19.3758 S   0  0
   92.5305   -5.9155   17.6718 N   0  0
   92.6376   -5.0212   13.5511 N   0  0
  6  1  1  0
  7  6  1  0
  7  8  1  0
  8  9  1  0
  9 10  1  0
 11 12  1  0
 13 14  1  0
 15 10  1  0
 16 17  1  0
 18 27  1  0
 19 20  1  0
 21 22  1  0
 21 17  1  0
 23 24  1  0
 25 13  1  0
 25 26  1  0
 26 16  1  0
  6  2  2  0
  9  3  2  0
 10 11  2  0
 12 13  2  0
 14 15  2  0
 17 18  2  0
 19 27  2  0
 20 21  2  0
 22 23  2  0
 24 16  2  0
 25  4  2  0
 25  5  2  0
M  END
> <Name>
CSC072611297

> <rmsd>
0.370061964

$$$$
CSC026979469 MCULE-4806515652 MolPort-005-772-379 PubChem-17568231 ZINC000014198236 ZINC14198236
  SciTegic06052412183D

 33 36  0  0  0  0            999 V2000
   88.0857   -7.8523   16.8240 C   0  0
   89.3438   -7.4584   16.1382 C   0  0
   90.5558   -8.1031   16.4724 C   0  0
   91.7574   -7.7446   15.8344 C   0  0
   91.6944   -6.7388   14.8721 C   0  0
   92.6638   -6.1647   14.0863 C   0  0
   94.1274   -6.4558   14.0989 C   0  0
   94.8034   -5.6510   15.1542 C   0  0
   95.3372   -5.4494   17.6532 C   0  0
   95.2224   -6.0586   18.9074 C   0  0
   95.7436   -5.4377   20.0460 C   0  0
   96.3858   -4.2002   19.9383 C   0  0
   96.5024   -3.5848   18.6877 C   0  0
   95.9808   -4.2067   17.5501 C   0  0
   96.2738   -2.3524   23.6003 C   0  0
   96.3846   -3.3438   24.7408 C   0  0
   96.9812   -2.6479   25.9637 C   0  0
   98.0818   -4.6278   26.7521 C   0  0
   98.1529   -5.6381   27.8992 C   0  0
   96.0697   -5.1337   28.6202 C   0  0
   95.8611   -4.0896   27.5210 C   0  0
   92.0197   -5.1934   13.3252 C   0  0
   90.5248   -6.1105   14.5496 C   0  0
   89.3194   -6.4440   15.1628 C   0  0
   95.3521   -4.5608   14.8433 O   0  0
   97.7735   -2.1767   20.9832 O   0  0
   97.9757   -4.3660   22.0639 O   0  0
   96.8760   -6.1798   28.1351 O   0  0
   90.7314   -5.1980   13.6307 O   0  0
   94.7856   -6.1161   16.5101 N   0  0
   95.7187   -3.0118   22.4295 N   0  0
   97.1598   -3.5439   27.1101 N   0  0
   97.0293   -3.4240   21.3734 S   0  0
  1  2  1  0
  3  4  1  0
  5  6  1  0
  7  6  1  0
  7  8  1  0
  8 30  1  0
 10 11  1  0
 12 13  1  0
 14  9  1  0
 15 31  1  0
 15 16  1  0
 16 17  1  0
 17 32  1  0
 18 32  1  0
 18 19  1  0
 19 28  1  0
 20 28  1  0
 20 21  1  0
 21 32  1  0
 22 29  1  0
 23 29  1  0
 23  5  1  0
 24  2  1  0
 30  9  1  0
 33 12  1  0
 33 31  1  0
  2  3  2  0
  4  5  2  0
  6 22  2  0
  8 25  2  0
  9 10  2  0
 11 12  2  0
 13 14  2  0
 23 24  2  0
 33 26  2  0
 33 27  2  0
M  END
> <Name>
CSC026979469 MCULE-4806515652 MolPort-005-772-379 PubChem-17568231 ZINC000014198236 ZINC14198236

> <rmsd>
0.355821759

$$$$
CSC093969390
  SciTegic06052412183D

 28 31  0  0  0  0            999 V2000
   88.7742   -9.0239   16.6382 C   0  0
   89.7678   -7.9936   16.2390 C   0  0
   90.5736   -7.3928   17.2079 C   0  0
   91.5112   -6.4212   16.8322 C   0  0
   92.2810   -6.1154   19.2320 C   0  0
   93.2694   -5.2912   19.9779 C   0  0
   92.9027   -4.0341   20.4702 C   0  0
   93.8385   -3.2494   21.1505 C   0  0
   95.1449   -3.7171   21.3353 C   0  0
   95.5121   -4.9717   20.8362 C   0  0
   94.5766   -5.7567   20.1557 C   0  0
   97.8763   -2.7614   24.2682 C   0  0
   98.2524   -3.3923   25.6113 C   0  0
   96.2314   -4.3931   25.8120 C   0  0
   95.7442   -3.8162   24.4806 C   0  0
   91.6232   -6.0673   15.4774 C   0  0
   92.5445   -5.1016   15.0471 C   0  0
   92.6334   -4.7693   13.6922 C   0  0
   91.8040   -5.3985   12.7591 C   0  0
   90.8821   -6.3630   13.1765 C   0  0
   90.7864   -6.7011   14.5294 C   0  0
   92.3457   -5.7948   17.8137 N   0  0
   96.8890   -3.6051   23.5910 N   0  0
   89.8891   -7.6391   14.9323 N   0  0
   96.3243   -2.7418   22.1955 S   0  0
   97.4772   -2.4492   21.2759 O   0  0
   95.6954   -1.4414   22.6186 O   0  0
   97.1110   -3.4847   26.4299 O   0  0
  1  2  1  0
  2 24  1  0
  3  4  1  0
  4 22  1  0
  5 22  1  0
  5  6  1  0
  7  8  1  0
  9 10  1  0
 11  6  1  0
 12 23  1  0
 12 13  1  0
 13 28  1  0
 14 28  1  0
 14 15  1  0
 15 23  1  0
 16 17  1  0
 18 19  1  0
 20 21  1  0
 21 16  1  0
 25  9  1  0
 25 23  1  0
  2  3  2  0
  4 16  2  0
  6  7  2  0
  8  9  2  0
 10 11  2  0
 17 18  2  0
 19 20  2  0
 21 24  2  0
 25 26  2  0
 25 27  2  0
M  END
> <Name>
CSC093969390

> <rmsd>
0.397755563

$$$$
CSC026943753 MCULE-2226155602 MolPort-005-773-927 PubChem-17566153 ZINC000014169739
  SciTegic06052412183D

 35 39  0  0  0  0            999 V2000
   94.5394   -1.2414   20.5081 O   0  0
   97.1544   -0.5387   27.3066 O   0  0
   97.3128   -3.5926   27.0671 O   0  0
   98.3111   -4.2353   21.9345 O   0  0
   97.4231   -2.1999   20.9224 O   0  0
   94.1749   -2.4342   20.6893 C   0  0
   92.9963   -4.5060   19.8724 C   0  0
   91.6277   -4.7474   19.2415 C   0  0
   90.3244   -4.5699   17.2931 C   0  0
   90.3713   -5.7954   16.4304 C   0  0
   91.1277   -5.8525   15.2385 C   0  0
   91.1291   -7.0439   14.4707 C   0  0
   91.8820   -7.1207   13.2956 C   0  0
   92.6349   -6.0219   12.8717 C   0  0
   92.6349   -4.8414   13.6194 C   0  0
   91.8844   -4.7558   14.7958 C   0  0
   90.3782   -8.1459   14.8862 C   0  0
   89.6260   -8.0782   16.0601 C   0  0
   89.6229   -6.9094   16.8264 C   0  0
   91.8033   -2.8436   17.8523 C   0  0
   93.1859   -2.4838   18.3875 C   0  0
   94.5928   -3.1285   21.9467 C   0  0
   97.1663   -2.4747   23.5663 C   0  0
   97.2532   -3.2554   24.7196 C   0  0
   97.2233   -2.6807   25.9976 C   0  0
   97.1358   -1.2586   26.1051 C   0  0
   97.2981   -1.1023   28.5949 C   0  0
   96.2434   -2.1547   28.7860 C   0  0
   96.8637   -3.4809   28.4222 C   0  0
   97.0338   -0.4930   24.9365 C   0  0
   97.0445   -1.0911   23.6776 C   0  0
   93.3817   -3.1044   19.6974 N   0  0
   91.6395   -4.2948   17.8523 N   0  0
   95.6872   -4.0517   21.6753 N   0  0
   97.1878   -3.2382   21.9837 S   0  0
  6 32  1  0
  7 32  1  0
  7  8  1  0
  8 33  1  0
  9 33  1  0
  9 10  1  0
 10 11  1  0
 11 12  1  0
 12 17  1  0
 13 14  1  0
 15 16  1  0
 18 19  1  0
 20 33  1  0
 20 21  1  0
 21 32  1  0
 22  6  1  0
 22 34  1  0
 24 25  1  0
 25  3  1  0
 26  2  1  0
 26 30  1  0
 27  2  1  0
 27 28  1  0
 28 29  1  0
 29  3  1  0
 31 23  1  0
 35 34  1  0
 35 23  1  0
  6  1  2  0
 12 13  2  0
 14 15  2  0
 16 11  2  0
 17 18  2  0
 19 10  2  0
 23 24  2  0
 25 26  2  0
 30 31  2  0
 35  4  2  0
 35  5  2  0
M  END
> <Name>
CSC026943753 MCULE-2226155602 MolPort-005-773-927 PubChem-17566153 ZINC000014169739

> <rmsd>
0.339683563

$$$$
CSC025858364 MCULE-6184797372 MolPort-005-830-428 PubChem-16229967 ZINC000009125187
  SciTegic06052412183D

 33 36  0  0  0  0            999 V2000
   98.2645   -4.8333   22.3149 C   0  0
   95.9432   -3.9727   20.4846 C   0  0
   94.8531   -4.8104   20.7400 C   0  0
   94.3375   -5.6197   19.7235 C   0  0
   94.9069   -5.6007   18.4456 C   0  0
   94.7964   -6.5656   16.0735 C   0  0
   94.0556   -7.4591   15.1366 C   0  0
   91.6701   -6.8356   15.1748 C   0  0
   90.5770   -6.1328   14.6176 C   0  0
   89.3167   -6.1958   15.2183 C   0  0
   89.1302   -6.9575   16.3744 C   0  0
   90.2022   -7.6590   16.9325 C   0  0
   91.4650   -7.6002   16.3369 C   0  0
   91.9700   -5.3223   12.8916 C   0  0
   93.0576   -6.0101   13.4323 C   0  0
   96.0015   -4.7594   18.1944 C   0  0
   96.5178   -3.9497   19.2096 C   0  0
   98.0598   -3.1179   23.9588 C   0  0
   98.8780   -3.9578   24.9576 C   0  0
   97.9522   -4.6784   25.9379 C   0  0
   96.2953   -4.4601   27.5705 C   0  0
   96.2810   -3.0084   25.7399 C   0  0
   97.1180   -2.1977   24.7506 C   0  0
   97.3164   -3.9645   23.0057 N   0  0
   94.3479   -6.4432   17.4294 N   0  0
   92.8996   -6.7584   14.5695 N   0  0
   90.7564   -5.3963   13.4931 N   0  0
   97.1564   -3.7039   26.6802 N   0  0
   96.5923   -2.9665   21.7709 S   0  0
   94.1785   -5.9321   12.8600 O   0  0
   95.7861   -5.9116   15.6506 O   0  0
   95.4643   -2.1586   22.3499 O   0  0
   97.6215   -2.0268   21.2033 O   0  0
  1 24  1  0
  3  4  1  0
  5 25  1  0
  5 16  1  0
  7  6  1  0
  7 26  1  0
  8  9  1  0
  9 27  1  0
 10 11  1  0
 12 13  1  0
 14 15  1  0
 15 26  1  0
 17  2  1  0
 18 24  1  0
 18 19  1  0
 19 20  1  0
 20 28  1  0
 21 28  1  0
 22 28  1  0
 22 23  1  0
 23 18  1  0
 25  6  1  0
 26  8  1  0
 29 24  1  0
 29  2  1  0
  2  3  2  0
  4  5  2  0
  6 31  2  0
  9 10  2  0
 11 12  2  0
 13  8  2  0
 14 27  2  0
 15 30  2  0
 16 17  2  0
 29 32  2  0
 29 33  2  0
M  END
> <Name>
CSC025858364 MCULE-6184797372 MolPort-005-830-428 PubChem-16229967 ZINC000009125187

> <rmsd>
0.382371575

$$$$
CSC028210579 MCULE-2811090178 MolPort-009-621-504 PubChem-29474847 ZINC000021399661
  SciTegic06052412183D

 29 32  0  0  0  0            999 V2000
   96.6275   -4.7607   25.7194 C   0  0
   97.5281   -2.4188   25.7440 C   0  0
   97.5891   -2.2488   24.3343 C   0  0
   97.1860   -3.2807   22.0162 C   0  0
   97.0205   -3.6898   19.6682 C   0  0
   95.0862   -3.6634   17.9329 C   0  0
   94.4647   -4.0103   16.6262 C   0  0
   92.6158   -5.3469   15.4461 C   0  0
   91.5188   -6.2157   15.6009 C   0  0
   90.8061   -6.6658   14.4647 C   0  0
   89.3420   -7.9331   15.8391 C   0  0
   90.0162   -7.5142   16.9880 C   0  0
   91.1075   -6.6530   16.8657 C   0  0
   91.1906   -6.2489   13.1890 C   0  0
   92.2784   -5.3879   13.0342 C   0  0
   92.9847   -4.9412   14.1538 C   0  0
   98.0559   -1.0301   23.8157 C   0  0
   98.4562    0.0048   24.6607 C   0  0
   98.3953   -0.1645   26.0420 C   0  0
   97.9345   -1.3681   26.5759 C   0  0
   97.0806   -3.5880   26.3802 O   0  0
   94.9276   -3.5139   15.5647 O   0  0
   97.1812   -3.3032   23.4489 N   0  0
   93.3370   -4.8942   16.6047 N   0  0
   89.7463   -7.5049   14.6131 N   0  0
   97.4983   -2.4603   19.9578 N   0  0
   97.5901   -2.2312   21.2664 N   0  0
   96.6848   -4.5730   21.0624 S   0  0
   96.7886   -4.2944   18.0036 S   0  0
  1 21  1  0
  2 21  1  0
  3 23  1  0
  3 17  1  0
  4 28  1  0
  5 28  1  0
  5 29  1  0
  6 29  1  0
  6  7  1  0
  7 24  1  0
  8  9  1  0
  9 10  1  0
 10 14  1  0
 11 25  1  0
 12 13  1  0
 15 16  1  0
 18 19  1  0
 20  2  1  0
 23  4  1  0
 24  8  1  0
 26 27  1  0
  2  3  2  0
  4 27  2  0
  5 26  2  0
  7 22  2  0
 10 25  2  0
 11 12  2  0
 13  9  2  0
 14 15  2  0
 16  8  2  0
 17 18  2  0
 19 20  2  0
M  END
> <Name>
CSC028210579 MCULE-2811090178 MolPort-009-621-504 PubChem-29474847 ZINC000021399661

> <rmsd>
0.378976375

$$$$
CSC026173430 MCULE-4649108566 MolPort-005-705-539 PubChem-42902803
  SciTegic06052412183D

 33 36  0  0  0  0            999 V2000
   91.7471   -4.4102   11.5392 C   0  0
   91.6879   -5.2169   12.7924 C   0  0
   92.8852   -5.6825   13.3417 C   0  0
   92.8789   -6.4413   14.5121 C   0  0
   91.6693   -6.7438   15.1496 C   0  0
   91.6254   -7.5070   16.3273 C   0  0
   92.8649   -8.0143   16.9882 C   0  0
   94.5614   -7.2087   18.5817 C   0  0
   95.0629   -6.1343   19.4533 C   0  0
   96.2298   -6.3155   20.2098 C   0  0
   96.7004   -5.2917   21.0369 C   0  0
   96.0082   -4.0791   21.1154 C   0  0
   94.8452   -3.8924   20.3608 C   0  0
   94.3743   -4.9162   19.5340 C   0  0
   97.6457   -2.3905   24.4755 C   0  0
   98.1462   -2.9164   25.8142 C   0  0
   99.3359   -3.8263   25.6350 C   0  0
   99.1773   -4.7898   26.7600 C   0  0
   97.6878   -4.7874   27.0063 C   0  0
   90.3923   -7.7657   16.9232 C   0  0
   89.2313   -7.2718   16.3268 C   0  0
   90.4516   -6.2753   14.6018 C   0  0
   90.4625   -5.5118   13.4210 C   0  0
   89.1727   -5.0183   12.8449 C   0  0
   93.3900   -7.0125   17.8470 O   0  0
   95.1887   -8.3011   18.4993 O   0  0
   97.7531   -2.1021   21.4663 O   0  0
   95.5077   -1.8051   22.4131 O   0  0
   97.1237   -3.6018   26.4968 O   0  0
   88.1127   -7.5033   16.8536 O   0  0
   89.2986   -6.5577   15.2071 O   0  0
   96.6078   -2.7960   22.1496 S   0  0
   97.1360   -3.4772   23.6510 N   0  0
  1  2  1  0
  3  4  1  0
  5  6  1  0
  7  6  1  0
  7 25  1  0
  8 25  1  0
  8  9  1  0
 10 11  1  0
 12 13  1  0
 14  9  1  0
 15 33  1  0
 16 15  1  0
 16 17  1  0
 16 29  1  0
 17 18  1  0
 18 19  1  0
 19 29  1  0
 20 21  1  0
 21 31  1  0
 22 31  1  0
 22  5  1  0
 23  2  1  0
 24 23  1  0
 32 12  1  0
 32 33  1  0
  2  3  2  0
  4  5  2  0
  6 20  2  0
  8 26  2  0
  9 10  2  0
 11 12  2  0
 13 14  2  0
 21 30  2  0
 22 23  2  0
 32 27  2  0
 32 28  2  0
M  END
> <Name>
CSC026173430 MCULE-4649108566 MolPort-005-705-539 PubChem-42902803

> <rmsd>
0.408082902

$$$$
CSC027900523 MCULE-8939146931 MolPort-009-630-817 PubChem-30823341 ZINC000023075206
  SciTegic06052412183D

 35 39  0  0  0  0            999 V2000
   96.6371   -0.6661   27.2431 C   0  0
   97.5652   -2.3858   25.6647 C   0  0
   98.4371   -3.9948   24.1802 C   0  0
   99.1480   -4.3284   22.9137 C   0  0
   97.4803   -3.7011   21.1964 C   0  0
   96.4776   -4.1236   20.2058 C   0  0
   95.7381   -3.1724   19.4896 C   0  0
   94.7858   -3.5793   18.5515 C   0  0
   94.5580   -4.9433   18.3152 C   0  0
   92.6144   -6.3902   17.6739 C   0  0
   91.6232   -6.8203   16.6666 C   0  0
   91.5970   -6.2130   15.3952 C   0  0
   90.6336   -6.6279   14.4432 C   0  0
   89.7188   -7.6331   14.7644 C   0  0
   89.7503   -8.2315   16.0254 C   0  0
   90.6957   -7.8272   16.9710 C   0  0
   90.5950   -6.0329   13.1804 C   0  0
   91.5069   -5.0282   12.8515 C   0  0
   92.4618   -4.6145   13.7833 C   0  0
   92.5156   -5.1990   15.0568 C   0  0
   93.5347   -4.7651   16.0340 C   0  0
   95.2995   -5.8930   19.0338 C   0  0
   96.2517   -5.4859   19.9719 C   0  0
   97.2825   -4.6827   26.1074 C   0  0
   97.8597    0.0639   25.1931 C   0  0
   97.3564   -1.0140   26.0289 N   0  0
   98.2379   -2.6977   24.5247 N   0  0
   93.5750   -5.3635   17.3472 N   0  0
   97.9534   -4.9874   24.9686 N   0  0
   96.7787   -5.7231   26.9357 N   0  0
   97.0892   -3.3855   26.4544 N   0  0
   98.2111   -4.6662   21.8977 O   0  0
   92.5982   -6.9071   18.8252 O   0  0
   94.3825   -3.8902   15.7041 O   0  0
   97.6810   -2.4730   21.4076 O   0  0
  1 26  1  0
  2 31  1  0
  3 27  1  0
  4  3  1  0
  4 32  1  0
  5 32  1  0
  5  6  1  0
  7  8  1  0
  9 28  1  0
  9 22  1  0
 10 11  1  0
 12 13  1  0
 13 17  1  0
 14 15  1  0
 16 11  1  0
 18 19  1  0
 20 21  1  0
 20 12  1  0
 21 28  1  0
 23  6  1  0
 24 29  1  0
 24 30  1  0
 25 26  1  0
 26  2  1  0
 28 10  1  0
  2 27  2  0
  3 29  2  0
  5 35  2  0
  6  7  2  0
  8  9  2  0
 10 33  2  0
 11 12  2  0
 13 14  2  0
 15 16  2  0
 17 18  2  0
 19 20  2  0
 21 34  2  0
 22 23  2  0
 24 31  2  0
M  END
> <Name>
CSC027900523 MCULE-8939146931 MolPort-009-630-817 PubChem-30823341 ZINC000023075206

> <rmsd>
0.40926978

$$$$
CSC082889958
  SciTegic06052412183D

 29 32  0  0  0  0            999 V2000
   97.2407   -3.5882   26.7571 N   0  0
   97.7357   -2.0442   21.3778 N   0  0
   96.1592   -4.8391   19.5540 N   0  0
   93.8789   -6.1002   17.8286 N   0  0
   97.6260   -3.3042   25.3874 C   0  0
   97.5951   -1.8012   25.1508 C   0  0
   98.1057   -1.4666   23.7484 C   0  0
   97.5511   -2.3753   22.6841 C   0  0
   97.2894   -2.8354   20.3657 C   0  0
   96.6240   -4.0311   20.6436 C   0  0
   95.4659   -6.0900   19.6513 C   0  0
   95.0287   -6.7814   18.4064 C   0  0
   92.5634   -6.1991   18.3785 C   0  0
   91.4384   -5.4599   17.7382 C   0  0
   90.8496   -6.2641   16.6203 C   0  0
   91.3000   -6.1296   15.2907 C   0  0
   92.3086   -5.2153   14.9488 C   0  0
   92.7382   -5.0992   13.6241 C   0  0
   92.1646   -5.8940   12.6281 C   0  0
   91.1586   -6.8081   12.9524 C   0  0
   90.7227   -6.9309   14.2746 C   0  0
   89.7168   -7.8464   14.5915 C   0  0
   89.2780   -7.9755   15.9107 C   0  0
   89.8426   -7.1901   16.9186 C   0  0
   96.4312   -4.3988   21.9803 C   0  0
   96.9033   -3.5848   23.0102 C   0  0
   96.6497   -3.9843   24.4343 C   0  0
   95.2027   -6.6067   20.7693 O   0  0
   92.3390   -6.9307   19.3796 O   0  0
  3 11  1  0
  4 13  1  0
  5  1  1  0
  5  6  1  0
  6  7  1  0
  7  8  1  0
  9  2  1  0
 10  3  1  0
 10 25  1  0
 12 11  1  0
 12  4  1  0
 14 13  1  0
 14 15  1  0
 15 16  1  0
 17 18  1  0
 19 20  1  0
 21 22  1  0
 21 16  1  0
 23 24  1  0
 26  8  1  0
 27 26  1  0
 27  5  1  0
  8  2  2  0
  9 10  2  0
 11 28  2  0
 13 29  2  0
 16 17  2  0
 18 19  2  0
 20 21  2  0
 22 23  2  0
 24 15  2  0
 25 26  2  0
M  END
> <Name>
CSC082889958

> <rmsd>
0.36414659

$$$$
CSC026645597 MCULE-7744047454 MolPort-004-275-616 PubChem-2108759 ZINC000002645732
  SciTegic06052412183D

 32 36  0  0  0  0            999 V2000
   94.4719   -3.0070   17.0827 N   0  0
   93.8646   -3.9667   17.9012 N   0  0
   94.8527   -4.4009   25.6554 N   0  0
   93.5280   -5.5061   19.4556 N   0  0
   92.3961   -5.3752   18.7714 N   0  0
   94.4141   -4.6446   18.9175 C   0  0
   95.6335   -3.1511   20.6589 C   0  0
   96.8276   -2.7110   21.4410 C   0  0
   96.9023   -2.9345   22.8977 C   0  0
   95.8549   -3.5759   23.5773 C   0  0
   95.9357   -3.7906   24.9552 C   0  0
   97.0638   -3.3621   25.6692 C   0  0
   96.2866   -4.4865   27.7465 C   0  0
   94.9664   -4.6635   27.0551 C   0  0
   98.1037   -2.7111   25.0014 C   0  0
   98.0244   -2.5016   23.6213 C   0  0
   92.6093   -4.4311   17.8325 C   0  0
   91.6022   -4.0239   16.8079 C   0  0
   91.7028   -4.9003   15.5980 C   0  0
   90.9657   -6.0971   15.4832 C   0  0
   91.1175   -6.9011   14.3262 C   0  0
   90.3928   -8.0893   14.1982 C   0  0
   89.5160   -8.4880   15.2106 C   0  0
   89.3599   -7.7004   16.3543 C   0  0
   90.0802   -6.5105   16.4908 C   0  0
   91.9924   -6.5089   13.3108 C   0  0
   92.7209   -5.3242   13.4333 C   0  0
   92.5777   -4.5264   14.5711 C   0  0
   96.1007   -4.4536   19.4819 S   0  0
   97.1344   -3.5646   27.0524 O   0  0
   93.9769   -5.1050   27.6941 O   0  0
   97.7730   -2.1319   20.8405 O   0  0
  1  2  1  0
  2  6  1  0
  3 11  1  0
  4  5  1  0
  6 29  1  0
  7 29  1  0
  7  8  1  0
  8  9  1  0
 10 11  1  0
 12 30  1  0
 12 15  1  0
 13 30  1  0
 13 14  1  0
 14  3  1  0
 16  9  1  0
 17  2  1  0
 18 17  1  0
 18 19  1  0
 19 20  1  0
 20 21  1  0
 21 26  1  0
 22 23  1  0
 24 25  1  0
 27 28  1  0
  6  4  2  0
  8 32  2  0
  9 10  2  0
 11 12  2  0
 14 31  2  0
 15 16  2  0
 17  5  2  0
 21 22  2  0
 23 24  2  0
 25 20  2  0
 26 27  2  0
 28 19  2  0
M  END
> <Name>
CSC026645597 MCULE-7744047454 MolPort-004-275-616 PubChem-2108759 ZINC000002645732

> <rmsd>
0.395580918

$$$$
CSC066185914
  SciTegic06052412183D

 27 30  0  0  0  0            999 V2000
   97.0757   -3.4386   26.7209 N   0  0
   97.8602   -2.3084   21.2739 N   0  0
   95.4788   -4.6614   19.6530 N   0  0
   94.7782   -5.3528   17.3926 N   0  0
   91.9968   -4.9695   14.8970 N   0  0
   91.1495   -6.0331   13.0970 N   0  0
   97.4935   -3.3282   25.3359 C   0  0
   97.8795   -1.8875   25.0337 C   0  0
   98.4310   -1.7651   23.6124 C   0  0
   97.6199   -2.5226   22.5952 C   0  0
   97.1869   -2.9817   20.3032 C   0  0
   96.2169   -3.9330   20.6435 C   0  0
   95.6079   -4.5463   18.2305 C   0  0
   94.8192   -5.2822   15.9379 C   0  0
   94.1792   -3.9912   15.4426 C   0  0
   92.6807   -3.9784   15.7170 C   0  0
   91.8675   -4.9684   13.5476 C   0  0
   90.8312   -6.6985   14.2231 C   0  0
   90.0944   -7.8746   14.3374 C   0  0
   89.8888   -8.3860   15.6331 C   0  0
   90.4167   -7.7189   16.7622 C   0  0
   91.1572   -6.5317   16.6108 C   0  0
   91.3383   -6.0575   15.3123 C   0  0
   95.9615   -4.1769   21.9938 C   0  0
   96.6667   -3.4879   22.9812 C   0  0
   96.3441   -3.7435   24.4245 C   0  0
   96.4406   -3.7504   17.7175 O   0  0
  3 13  1  0
  5 17  1  0
  7  1  1  0
  7  8  1  0
  8  9  1  0
  9 10  1  0
 11  2  1  0
 12  3  1  0
 12 24  1  0
 13  4  1  0
 14  4  1  0
 14 15  1  0
 15 16  1  0
 16  5  1  0
 18  6  1  0
 19 20  1  0
 21 22  1  0
 23  5  1  0
 23 18  1  0
 25 10  1  0
 26 25  1  0
 26  7  1  0
 10  2  2  0
 11 12  2  0
 13 27  2  0
 17  6  2  0
 18 19  2  0
 20 21  2  0
 22 23  2  0
 24 25  2  0
M  END
> <Name>
CSC066185914

> <rmsd>
0.401908189

$$$$
CSC073759187
  SciTegic06052412183D

 27 31  0  0  0  0            999 V2000
   96.9652   -2.6316   23.4858 C   0  0
   97.7911   -3.5958   24.3253 C   0  0
   97.0038   -4.8443   24.5988 C   0  0
   96.8967   -4.8862   26.1041 C   0  0
   98.0135   -3.0023   25.6980 C   0  0
   96.5274   -4.0647   21.4824 C   0  0
   96.8418   -3.9147   20.1474 C   0  0
   96.4491   -4.8383   19.0480 C   0  0
   95.4394   -4.1394   17.0553 C   0  0
   94.1450   -3.7037   16.3738 C   0  0
   92.9179   -5.1741   17.9616 C   0  0
   94.2661   -5.5401   18.5782 C   0  0
   92.4408   -5.3293   15.4630 C   0  0
   91.3783   -6.2439   15.6082 C   0  0
   90.7660   -6.7529   16.7345 C   0  0
   89.7769   -7.6044   16.2455 C   0  0
   90.7463   -6.7930   14.5237 C   0  0
   91.1128   -6.4813   13.2178 C   0  0
   92.1661   -5.5731   13.0329 C   0  0
   92.8212   -5.0036   14.1422 C   0  0
   97.1114   -3.5919   26.5961 O   0  0
   97.0473   -2.9730   22.0734 N   0  0
   95.1872   -4.4080   18.4715 N   0  0
   93.1278   -4.7322   16.5847 N   0  0
   89.7648   -7.6283   14.8918 N   0  0
   97.5029   -2.7557   19.9652 N   0  0
   97.6150   -2.2023   21.1615 N   0  0
  1  2  1  0
  1 22  1  0
  2  3  1  0
  3  4  1  0
  4 21  1  0
  5 21  1  0
  5  2  1  0
  7 26  1  0
  8  7  1  0
  8 23  1  0
  9 23  1  0
  9 10  1  0
 10 24  1  0
 11 24  1  0
 11 12  1  0
 12 23  1  0
 14 15  1  0
 16 25  1  0
 17 14  1  0
 18 19  1  0
 20 13  1  0
 22  6  1  0
 22 27  1  0
 24 13  1  0
 25 17  1  0
  6  7  2  0
 13 14  2  0
 15 16  2  0
 17 18  2  0
 19 20  2  0
 26 27  2  0
M  END
> <Name>
CSC073759187

> <rmsd>
0.369998932

$$$$
CSC027151263 MCULE-7851342517 MolPort-005-618-418 PubChem-17489279
  SciTegic06052412183D

 33 37  0  0  0  0            999 V2000
   94.6865   -6.2344   19.8777 O   0  0
   97.0957   -3.7217   27.1324 O   0  0
   96.8297   -5.9540   25.5277 O   0  0
   97.7482   -4.3256   20.5918 O   0  0
   97.8698   -1.9016   20.8265 O   0  0
   94.3624   -5.0170   19.8686 C   0  0
   94.7109   -4.1586   21.0393 C   0  0
   97.0894   -3.2968   22.9590 C   0  0
   96.9814   -4.5668   23.5389 C   0  0
   96.9630   -4.6979   24.9294 C   0  0
   97.0763   -3.5625   25.7442 C   0  0
   97.2916   -5.0106   27.7183 C   0  0
   96.5337   -6.0750   26.9210 C   0  0
   97.1678   -2.2930   25.1683 C   0  0
   97.1728   -2.1614   23.7758 C   0  0
   94.8431   -1.8307   21.2353 C   0  0
   93.4179   -2.2018   21.5588 C   0  0
   93.4552   -3.6934   21.7527 C   0  0
   93.3108   -5.2599   17.5920 C   0  0
   92.5754   -4.3922   16.5877 C   0  0
   92.1810   -5.1939   15.3890 C   0  0
   91.1815   -6.1848   15.4526 C   0  0
   90.8386   -6.9053   14.2857 C   0  0
   89.8509   -7.8882   14.3543 C   0  0
   89.2132   -8.1468   15.5687 C   0  0
   89.5734   -7.4141   16.7024 C   0  0
   91.4816   -6.6325   13.0765 C   0  0
   92.4659   -5.6430   13.0185 C   0  0
   92.8109   -4.9264   14.1683 C   0  0
   95.4639   -2.9856   20.5991 N   0  0
   93.6649   -4.4611   18.7520 N   0  0
   90.5384   -6.4583   16.6227 N   0  0
   97.0844   -3.1256   21.2083 S   0  0
  6 31  1  0
  7  6  1  0
  7 30  1  0
  9 10  1  0
 10  3  1  0
 11  2  1  0
 11 14  1  0
 12  2  1  0
 12 13  1  0
 13  3  1  0
 15  8  1  0
 16 30  1  0
 16 17  1  0
 17 18  1  0
 18  7  1  0
 19 31  1  0
 19 20  1  0
 20 21  1  0
 21 22  1  0
 22 23  1  0
 23 27  1  0
 24 25  1  0
 26 32  1  0
 28 29  1  0
 33 30  1  0
 33  8  1  0
  6  1  2  0
  8  9  2  0
 10 11  2  0
 14 15  2  0
 22 32  2  0
 23 24  2  0
 25 26  2  0
 27 28  2  0
 29 21  2  0
 33  4  2  0
 33  5  2  0
M  END
> <Name>
CSC027151263 MCULE-7851342517 MolPort-005-618-418 PubChem-17489279

> <rmsd>
0.402586401

$$$$
CSC027916906 MCULE-4680092174 MolPort-005-868-557 PubChem-4038857
  SciTegic06052412183D

 36 40  0  0  0  0            999 V2000
   99.3431   -2.7042   26.2716 C   0  0
   97.8909   -2.4116   25.9559 C   0  0
   97.7461   -2.0890   24.4595 C   0  0
   95.4875   -2.8806   24.6133 C   0  0
   95.7572   -3.1400   26.1038 C   0  0
   94.8355   -4.2334   26.6016 C   0  0
   95.2299   -3.3210   21.4312 C   0  0
   95.1720   -4.6903   21.7106 C   0  0
   94.2442   -5.5014   21.0527 C   0  0
   93.3743   -4.9453   20.1107 C   0  0
   93.4270   -3.5748   19.8201 C   0  0
   94.3612   -2.7672   20.4845 C   0  0
   92.5142   -2.9972   18.8214 C   0  0
   90.7351   -3.3525   17.1396 C   0  0
   91.4639   -3.4355   15.8347 C   0  0
   92.0804   -2.2648   15.3965 C   0  0
   92.8127   -2.2742   14.2153 C   0  0
   92.3722   -4.5378   13.8756 C   0  0
   91.5959   -4.6262   15.0654 C   0  0
   91.0077   -5.8838   15.3992 C   0  0
   90.2066   -6.0682   16.5400 C   0  0
   89.6460   -7.3118   16.8395 C   0  0
   89.8741   -8.4010   15.9987 C   0  0
   90.6609   -8.2464   14.8569 C   0  0
   91.2239   -7.0035   14.5513 C   0  0
   91.9959   -6.8802   13.3998 C   0  0
   92.5633   -5.6566   13.0646 C   0  0
   96.7292   -2.9410   23.8345 N   0  0
   97.0964   -3.5166   26.3183 O   0  0
   95.8522   -0.9070   22.3777 O   0  0
   97.6681   -2.2708   21.4470 O   0  0
   92.5834   -1.7695   18.5362 O   0  0
   91.5677   -3.8145   18.1965 O   0  0
   93.3676   -1.2179   13.8164 O   0  0
   92.9331   -3.3901   13.5094 O   0  0
   96.4001   -2.3031   22.2539 S   0  0
  2  1  1  0
  2  3  1  0
  2 29  1  0
  3 28  1  0
  4 28  1  0
  4  5  1  0
  5  6  1  0
  5 29  1  0
  8  9  1  0
 10 11  1  0
 11 13  1  0
 12  7  1  0
 13 33  1  0
 14 33  1  0
 14 15  1  0
 16 17  1  0
 17 35  1  0
 18 35  1  0
 19 20  1  0
 19 15  1  0
 21 22  1  0
 23 24  1  0
 25 26  1  0
 25 20  1  0
 27 18  1  0
 36 28  1  0
 36  7  1  0
  7  8  2  0
  9 10  2  0
 11 12  2  0
 13 32  2  0
 15 16  2  0
 17 34  2  0
 18 19  2  0
 20 21  2  0
 22 23  2  0
 24 25  2  0
 26 27  2  0
 36 30  2  0
 36 31  2  0
M  END
> <Name>
CSC027916906 MCULE-4680092174 MolPort-005-868-557 PubChem-4038857

> <rmsd>
0.406933546

$$$$
CSC027871071 MCULE-5157687604 MolPort-005-775-576 PubChem-42897901 ZINC000103141398
  SciTegic06052412183D

 38 42  0  0  0  0            999 V2000
   95.3259   -2.9978   15.6920 N   0  0
   94.6565   -3.5201   16.8052 N   0  0
   95.0988   -2.0841   21.1733 N   0  0
   96.5662   -5.8857   25.9579 N   0  0
   93.6882   -3.7141   18.7860 N   0  0
   93.5530   -4.8785   18.1598 N   0  0
   94.3620   -2.8956   17.9531 C   0  0
   96.4118   -1.6617   19.0260 C   0  0
   96.3415   -2.1094   20.4541 C   0  0
   94.8721   -2.5370   22.5143 C   0  0
   95.8938   -3.1033   23.2885 C   0  0
   95.6456   -3.5458   24.5928 C   0  0
   97.6842   -6.4280   26.7333 C   0  0
   97.4623   -7.9235   26.9714 C   0  0
   96.2598   -8.1435   25.0663 C   0  0
   96.4139   -6.6598   24.7236 C   0  0
   94.3490   -3.4217   25.1296 C   0  0
   93.3302   -2.8578   24.3564 C   0  0
   93.5902   -2.4186   23.0567 C   0  0
   94.1519   -4.7522   16.9583 C   0  0
   94.1757   -5.8211   15.9158 C   0  0
   92.9495   -5.7441   15.0599 C   0  0
   91.7711   -6.4477   15.3844 C   0  0
   90.6319   -6.3214   14.5511 C   0  0
   89.4572   -7.0130   14.8600 C   0  0
   89.4026   -7.8313   15.9914 C   0  0
   90.5217   -7.9612   16.8182 C   0  0
   91.7005   -7.2735   16.5170 C   0  0
   90.6793   -5.5051   13.4190 C   0  0
   91.8489   -4.8094   13.1061 C   0  0
   92.9760   -4.9272   13.9231 C   0  0
   94.7881   -1.1980   18.3345 S   0  0
   96.9688   -4.2567   25.5159 S   0  0
   97.4102   -8.5980   25.7375 O   0  0
   98.2243   -4.2516   24.6858 O   0  0
   97.2024   -3.4331   26.7520 O   0  0
   97.3999   -2.5022   21.0115 O   0  0
   93.9546   -3.9572   26.7564 Cl  0  0
  1  2  1  0
  2  7  1  0
  3 10  1  0
  5  6  1  0
  7 32  1  0
  8 32  1  0
  8  9  1  0
  9  3  1  0
 11 12  1  0
 13  4  1  0
 13 14  1  0
 14 34  1  0
 15 34  1  0
 15 16  1  0
 16  4  1  0
 17 38  1  0
 17 18  1  0
 19 10  1  0
 20  2  1  0
 21 20  1  0
 21 22  1  0
 22 23  1  0
 23 24  1  0
 24 29  1  0
 25 26  1  0
 27 28  1  0
 30 31  1  0
 33 12  1  0
 33  4  1  0
  7  5  2  0
  9 37  2  0
 10 11  2  0
 12 17  2  0
 18 19  2  0
 20  6  2  0
 24 25  2  0
 26 27  2  0
 28 23  2  0
 29 30  2  0
 31 22  2  0
 33 35  2  0
 33 36  2  0
M  END
> <Name>
CSC027871071 MCULE-5157687604 MolPort-005-775-576 PubChem-42897901 ZINC000103141398

> <rmsd>
0.314458668

$$$$
CSC083208668
  SciTegic06052412183D

 29 31  0  0  0  0            999 V2000
   87.6220   -5.4945   16.6662 C   0  0
   88.1117   -6.2772   15.4619 C   0  0
   90.0170   -7.4789   16.5595 C   0  0
   91.3940   -7.5806   16.3762 C   0  0
   92.3386   -8.3640   17.2248 C   0  0
   92.8767   -7.5092   18.3193 C   0  0
   94.6192   -5.7466   18.9736 C   0  0
   94.1509   -5.5794   20.2850 C   0  0
   94.7755   -4.6755   21.1484 C   0  0
   95.8764   -3.9257   20.7131 C   0  0
   96.3432   -4.0935   19.4018 C   0  0
   95.7175   -4.9980   18.5393 C   0  0
   96.5358   -2.9736   21.6238 C   0  0
   96.6806   -1.9144   23.9234 C   0  0
   98.0044   -2.4928   24.4037 C   0  0
   97.7807   -3.6903   25.2632 C   0  0
   91.7157   -6.7654   15.3115 C   0  0
   92.9413   -6.4788   14.7131 C   0  0
   92.9390   -5.5877   13.6248 C   0  0
   91.7321   -5.0130   13.1696 C   0  0
   90.5112   -5.3205   13.7972 C   0  0
   90.5444   -6.2081   14.8739 C   0  0
   89.5140   -6.6330   15.6274 N   0  0
   94.0031   -6.6618   18.0580 N   0  0
   96.0495   -2.8065   22.9597 N   0  0
   92.3150   -7.5222   19.4466 O   0  0
   97.5283   -2.3038   21.2261 O   0  0
   97.0982   -3.5699   26.4669 O   0  0
   98.2208   -4.8120   24.9014 O   0  0
  1  2  1  0
  2 23  1  0
  4 17  1  0
  5  4  1  0
  5  6  1  0
  6 24  1  0
  8  9  1  0
 10 11  1  0
 10 13  1  0
 12  7  1  0
 13 25  1  0
 14 25  1  0
 14 15  1  0
 15 16  1  0
 16 28  1  0
 18 19  1  0
 20 21  1  0
 22 23  1  0
 22 17  1  0
 23  3  1  0
 24  7  1  0
  3  4  2  0
  6 26  2  0
  7  8  2  0
  9 10  2  0
 11 12  2  0
 13 27  2  0
 16 29  2  0
 17 18  2  0
 19 20  2  0
 21 22  2  0
M  END
> <Name>
CSC083208668

> <rmsd>
0.416458756

$$$$
CSC093795633
  SciTegic06052412183D

 29 32  0  0  0  0            999 V2000
   96.0166   -4.4137   27.2634 C   0  0
   97.1857   -3.5893   25.5838 C   0  0
   97.2695   -2.1902   24.9995 C   0  0
   97.4278   -2.2504   23.5183 C   0  0
   98.6003   -1.7745   22.9284 C   0  0
   98.7325   -1.8208   21.5394 C   0  0
   96.5715   -2.7923   21.3261 C   0  0
   95.5510   -3.4487   19.0826 C   0  0
   94.3847   -4.0135   18.3870 C   0  0
   94.2315   -4.2577   17.0363 C   0  0
   95.2438   -4.0368   15.9599 C   0  0
   92.3635   -5.1996   15.6451 C   0  0
   91.4249   -6.2590   15.6030 C   0  0
   91.1037   -7.0123   16.7397 C   0  0
   90.1820   -8.0563   16.6586 C   0  0
   89.5840   -8.3461   15.4319 C   0  0
   90.7999   -6.5990   14.3781 C   0  0
   91.1086   -5.8939   13.2148 C   0  0
   92.0345   -4.8523   13.2539 C   0  0
   92.6539   -4.5102   14.4569 C   0  0
   96.4023   -2.7557   22.7125 C   0  0
   97.0367   -3.5096   26.9676 O   0  0
   96.5655   -3.0900   18.4263 O   0  0
   97.7264   -2.3241   20.7749 N   0  0
   95.5193   -3.3188   20.5096 N   0  0
   93.0048   -4.7977   16.8745 N   0  0
   92.4373   -4.8661   18.0704 N   0  0
   93.2526   -4.4007   19.0071 N   0  0
   89.9031   -7.6202   14.3277 N   0  0
  1 22  1  0
  2 22  1  0
  2  3  1  0
  3  4  1  0
  5  6  1  0
  7 24  1  0
  7 25  1  0
  8  9  1  0
  9 28  1  0
 10 26  1  0
 11 10  1  0
 12 13  1  0
 14 15  1  0
 16 29  1  0
 17 18  1  0
 17 13  1  0
 19 20  1  0
 21  4  1  0
 25  8  1  0
 26 27  1  0
 26 12  1  0
  4  5  2  0
  6 24  2  0
  7 21  2  0
  8 23  2  0
  9 10  2  0
 13 14  2  0
 15 16  2  0
 17 29  2  0
 18 19  2  0
 20 12  2  0
 27 28  2  0
M  END
> <Name>
CSC093795633

> <rmsd>
0.343923062

$$$$
CSC026597804 MCULE-6132747217 MolPort-044-227-177 PubChem-2339561
  SciTegic06052412183D

 34 38  0  0  0  0            999 V2000
   92.5852   -5.2063   13.4061 C   0  0
   92.0361   -6.5009   13.2713 C   0  0
   91.1406   -6.9800   14.2377 C   0  0
   90.8234   -6.1514   15.3106 C   0  0
   91.3556   -4.8836   15.4591 C   0  0
   92.2464   -4.3864   14.5024 C   0  0
   91.0876   -2.7946   16.9410 C   0  0
   92.4473   -2.5782   17.5099 C   0  0
   92.6948   -2.8644   18.8563 C   0  0
   93.9760   -2.6872   19.3850 C   0  0
   95.0215   -2.2267   18.5716 C   0  0
   94.7673   -1.9457   17.2208 C   0  0
   93.4854   -2.1218   16.6918 C   0  0
   96.3722   -2.0455   19.1305 C   0  0
   98.1534   -2.3538   22.3300 C   0  0
   97.1741   -2.7305   23.3783 C   0  0
   97.6288   -2.9245   24.6965 C   0  0
   96.7242   -3.2717   25.7106 C   0  0
   95.3680   -3.4261   25.4169 C   0  0
   94.9091   -3.2358   24.1130 C   0  0
   95.8075   -2.8898   23.1015 C   0  0
   89.9414   -6.5303   16.2959 C   0  0
   89.3263   -7.7821   16.2615 C   0  0
   89.6353   -8.6438   15.1878 C   0  0
   90.5390   -8.2465   14.1756 C   0  0
   90.8942   -4.2033   16.6316 N   0  0
   96.6122   -2.3010   20.5151 N   0  0
   97.8916   -2.1621   21.0702 N   0  0
   97.3189   -1.6634   18.3900 O   0  0
   97.1699   -3.4684   27.0115 O   0  0
   98.9779   -2.7766   25.0028 O   0  0
   88.3876   -4.6571   17.4682 O   0  0
   90.2618   -5.6116   18.8197 O   0  0
   89.7730   -5.2374   17.4498 S   0  0
  2  3  1  0
  4  5  1  0
  5 26  1  0
  6  1  1  0
  7 26  1  0
  7  8  1  0
  9 10  1  0
 11 12  1  0
 11 14  1  0
 13  8  1  0
 14 27  1  0
 15 16  1  0
 17 18  1  0
 17 31  1  0
 18 30  1  0
 19 20  1  0
 21 16  1  0
 22  4  1  0
 23 24  1  0
 25  3  1  0
 27 28  1  0
 34 26  1  0
 34 22  1  0
  1  2  2  0
  3  4  2  0
  5  6  2  0
  8  9  2  0
 10 11  2  0
 12 13  2  0
 14 29  2  0
 15 28  2  0
 16 17  2  0
 18 19  2  0
 20 21  2  0
 22 23  2  0
 24 25  2  0
 34 32  2  0
 34 33  2  0
M  END
> <Name>
CSC026597804 MCULE-6132747217 MolPort-044-227-177 PubChem-2339561

> <rmsd>
0.409332395

$$$$
CSC097927243
  SciTegic06052412183D

 28 31  0  0  0  0            999 V2000
   97.2411   -3.5990   26.7594 N   0  0
   97.7204   -2.0435   21.3822 N   0  0
   96.5593   -5.0930   19.5968 N   0  0
   96.1409   -5.8674   17.2937 N   0  0
   97.1097   -3.0835   25.4095 C   0  0
   98.2322   -2.0946   25.1304 C   0  0
   98.0527   -1.4512   23.7547 C   0  0
   97.6801   -2.4401   22.6826 C   0  0
   97.3660   -2.8752   20.3667 C   0  0
   96.9380   -4.1812   20.6369 C   0  0
   96.5610   -4.8347   18.1872 C   0  0
   96.0811   -5.6855   15.8497 C   0  0
   94.9112   -4.7915   15.4743 C   0  0
   92.7034   -5.7345   14.8562 C   0  0
   91.5174   -6.3742   15.2570 C   0  0
   91.3030   -6.7148   16.5998 C   0  0
   90.1194   -7.3508   16.9852 C   0  0
   89.1414   -7.6513   16.0327 C   0  0
   89.3423   -7.3175   14.6905 C   0  0
   90.5229   -6.6815   14.2964 C   0  0
   90.7205   -6.3495   12.9546 C   0  0
   91.8989   -5.7144   12.5580 C   0  0
   92.8834   -5.4090   13.5012 C   0  0
   96.8780   -4.6059   21.9650 C   0  0
   97.2335   -3.7398   22.9997 C   0  0
   97.1953   -4.2363   24.4156 C   0  0
   96.9288   -3.7172   17.7334 O   0  0
   93.6859   -5.4320   15.8074 O   0  0
  3 11  1  0
  5  1  1  0
  5  6  1  0
  6  7  1  0
  7  8  1  0
  9  2  1  0
 10  3  1  0
 10 24  1  0
 11  4  1  0
 12  4  1  0
 12 13  1  0
 13 28  1  0
 14 28  1  0
 14 15  1  0
 16 17  1  0
 18 19  1  0
 20 21  1  0
 20 15  1  0
 22 23  1  0
 25  8  1  0
 26 25  1  0
 26  5  1  0
  8  2  2  0
  9 10  2  0
 11 27  2  0
 15 16  2  0
 17 18  2  0
 19 20  2  0
 21 22  2  0
 23 14  2  0
 24 25  2  0
M  END
> <Name>
CSC097927243

> <rmsd>
0.37787503

$$$$
CSC027883397 MCULE-6435729943 MolPort-005-852-721 PubChem-2475960 ZINC000003358554 ZINC03358554
  SciTegic06052412183D

 37 40  0  0  0  0            999 V2000
   87.7277   -9.0576   14.3710 O   0  5
   88.5881   -7.7809   12.7233 O   0  0
   94.3999   -3.9107   15.6437 O   0  0
   92.6375   -6.8799   18.8178 O   0  0
   97.7469   -2.3995   21.2858 O   0  0
   98.2604   -4.5829   21.8328 O   0  0
   98.4099   -2.6150   24.3866 O   0  0
   97.0396   -3.4430   26.5590 O   0  0
   88.6505   -8.1431   13.9158 N   0  3
   93.6044   -5.3579   17.3134 N   0  0
   97.9533   -4.8527   24.9263 N   0  0
   96.7241   -5.7319   26.8738 N   0  0
   89.6786   -7.6596   14.8078 C   0  0
   90.6080   -6.6447   14.4508 C   0  0
   90.5773   -6.0343   13.1881 C   0  0
   91.4908   -5.0393   12.8455 C   0  0
   92.4556   -4.6333   13.7635 C   0  0
   92.5166   -5.2155   15.0351 C   0  0
   93.5513   -4.7769   15.9944 C   0  0
   92.6447   -6.3774   17.6599 C   0  0
   91.6402   -6.8144   16.6681 C   0  0
   90.7182   -7.8080   17.0046 C   0  0
   89.7556   -8.2219   16.0882 C   0  0
   91.5932   -6.2239   15.3894 C   0  0
   94.5929   -4.9224   18.2691 C   0  0
   94.8255   -3.5546   18.4779 C   0  0
   95.7832   -3.1321   19.4032 C   0  0
   96.5242   -4.0710   20.1335 C   0  0
   96.2927   -5.4369   19.9289 C   0  0
   95.3346   -5.8596   19.0040 C   0  0
   97.5346   -3.6310   21.1088 C   0  0
   99.2101   -4.2247   22.8301 C   0  0
   98.5150   -3.8351   24.0890 C   0  0
   97.2311   -4.6174   26.1399 C   0  0
   95.9816   -5.5669   28.1143 C   0  0
   95.5549   -6.8984   28.6363 C   0  0
   94.6242   -7.6106   28.0048 C   0  0
  9  1  1  0
  9 13  1  0
 10 20  1  0
 10 25  1  0
 11 34  1  0
 14 15  1  0
 16 17  1  0
 18 19  1  0
 19 10  1  0
 20 21  1  0
 21 22  1  0
 23 13  1  0
 24 14  1  0
 24 18  1  0
 26 27  1  0
 28 29  1  0
 28 31  1  0
 30 25  1  0
 31  6  1  0
 32  6  1  0
 32 33  1  0
 33 11  1  0
 34 12  1  0
 35 12  1  0
 35 36  1  0
  9  2  2  0
 13 14  2  0
 15 16  2  0
 17 18  2  0
 19  3  2  0
 20  4  2  0
 21 24  2  0
 22 23  2  0
 25 26  2  0
 27 28  2  0
 29 30  2  0
 31  5  2  0
 33  7  2  0
 34  8  2  0
 36 37  2  0
M  CHG  2   1  -1   9   1
M  END
> <Name>
CSC027883397 MCULE-6435729943 MolPort-005-852-721 PubChem-2475960 ZINC000003358554 ZINC03358554

> <rmsd>
0.345981389

$$$$
CSC057568940 MCULE-4967064112 PubChem-122082917
  SciTegic06052412183D

 28 30  0  0  0  0            999 V2000
   95.8845   -1.5628   25.0959 C   0  0
   96.6679   -2.9702   23.3584 C   0  0
   96.2775   -2.3968   22.0064 C   0  0
   95.1711   -3.2557   21.3656 C   0  0
   95.9494   -2.4728   19.2393 C   0  0
   97.0190   -1.6710   20.0001 C   0  0
   94.3315   -4.1627   19.3674 C   0  0
   94.2943   -5.6770   19.4747 C   0  0
   93.0631   -6.2061   18.8270 C   0  0
   91.7491   -6.4624   16.6328 C   0  0
   90.6736   -7.1461   17.2213 C   0  0
   89.5848   -7.5655   16.4532 C   0  0
   89.5537   -7.3073   15.0821 C   0  0
   90.6115   -6.6285   14.4750 C   0  0
   90.5756   -6.3715   13.1016 C   0  0
   91.6315   -5.6921   12.4881 C   0  0
   92.7268   -5.2674   13.2451 C   0  0
   92.7710   -5.5201   14.6191 C   0  0
   91.7186   -6.2010   15.2491 C   0  0
   95.4849   -3.9233   25.2238 C   0  0
   96.7652   -4.2930   25.9234 C   0  0
   95.5948   -2.7647   24.3260 N   0  0
   95.5347   -3.6533   20.0016 N   0  0
   92.8727   -6.0261   17.4167 N   0  0
   97.4125   -2.3380   21.1759 O   0  0
   92.2139   -6.8164   19.5285 O   0  0
   97.2600   -3.5341   26.7973 O   0  0
   97.3877   -5.4970   25.6241 O   0  0
  1 22  1  0
  2 22  1  0
  2  3  1  0
  3  4  1  0
  3 25  1  0
  4 23  1  0
  5 23  1  0
  5  6  1  0
  6 25  1  0
  7 23  1  0
  7  8  1  0
  8  9  1  0
  9 24  1  0
 11 12  1  0
 13 14  1  0
 15 16  1  0
 17 18  1  0
 19 10  1  0
 19 14  1  0
 20 22  1  0
 20 21  1  0
 21 28  1  0
 24 10  1  0
  9 26  2  0
 10 11  2  0
 12 13  2  0
 14 15  2  0
 16 17  2  0
 18 19  2  0
 21 27  2  0
M  END
> <Name>
CSC057568940 MCULE-4967064112 PubChem-122082917

> <rmsd>
0.387290537

$$$$
CSC094024410
  SciTegic06052412183D

 27 30  0  0  0  0            999 V2000
   97.4393   -2.4211   21.2767 O   0  0
   98.2306   -4.5728   22.1367 O   0  0
   97.1324   -3.5085   26.4215 O   0  0
   97.0473   -3.6466   22.0541 S   0  0
   96.5422   -3.1939   23.6514 N   0  0
   92.5330   -6.0327   17.7795 N   0  0
   89.7487   -7.4652   14.9622 N   0  0
   97.6658   -2.5131   24.2993 C   0  0
   97.3364   -2.2751   25.7749 C   0  0
   95.9779   -4.0841   25.8591 C   0  0
   96.2329   -4.4217   24.3883 C   0  0
   95.7251   -4.4480   21.2225 C   0  0
   94.4913   -3.8009   21.0941 C   0  0
   93.4322   -4.4343   20.4375 C   0  0
   93.6030   -5.7194   19.9119 C   0  0
   92.4842   -6.3836   19.1911 C   0  0
   91.5870   -6.5191   16.8199 C   0  0
   91.6875   -6.1397   15.4712 C   0  0
   92.7046   -5.2833   15.0260 C   0  0
   92.7799   -4.9227   13.6776 C   0  0
   91.8411   -5.4144   12.7658 C   0  0
   90.8228   -6.2687   13.1981 C   0  0
   90.7400   -6.6343   14.5447 C   0  0
   89.6370   -7.8423   16.2634 C   0  0
   90.5506   -7.3775   17.2114 C   0  0
   94.8385   -6.3643   20.0324 C   0  0
   95.8972   -5.7305   20.6893 C   0  0
  4  5  1  0
  4 12  1  0
  6 17  1  0
  8  5  1  0
  8  9  1  0
  9  3  1  0
 10  3  1  0
 10 11  1  0
 11  5  1  0
 13 14  1  0
 15 26  1  0
 16 15  1  0
 16  6  1  0
 17 18  1  0
 19 20  1  0
 21 22  1  0
 23  7  1  0
 23 18  1  0
 24 25  1  0
 27 12  1  0
  4  1  2  0
  4  2  2  0
 12 13  2  0
 14 15  2  0
 18 19  2  0
 20 21  2  0
 22 23  2  0
 24  7  2  0
 25 17  2  0
 26 27  2  0
M  END
> <Name>
CSC094024410

> <rmsd>
0.402895629

$$$$
CSC063940296
  SciTegic06052412183D

 29 32  0  0  0  0            999 V2000
   96.0972   -4.5195   27.2706 C   0  0
   97.1600   -3.6055   25.5677 C   0  0
   97.2630   -2.2029   24.9942 C   0  0
   97.4191   -2.2508   23.5124 C   0  0
   98.5904   -1.7686   22.9251 C   0  0
   98.7223   -1.8049   21.5358 C   0  0
   96.5620   -2.7776   21.3167 C   0  0
   95.5361   -3.4063   19.0677 C   0  0
   94.3825   -3.9950   18.3706 C   0  0
   94.2217   -4.2103   17.0158 C   0  0
   95.2144   -3.9258   15.9362 C   0  0
   92.3775   -5.2051   15.6260 C   0  0
   91.4270   -6.2518   15.6010 C   0  0
   90.2035   -7.9556   16.7286 C   0  0
   89.5697   -8.3266   15.5412 C   0  0
   89.8780   -7.6497   14.3610 C   0  0
   90.8087   -6.6105   14.3799 C   0  0
   91.1302   -5.9362   13.2020 C   0  0
   92.0661   -4.9023   13.2257 C   0  0
   92.6814   -4.5413   14.4261 C   0  0
   96.3944   -2.7528   22.7034 C   0  0
   97.0316   -3.5339   26.9537 O   0  0
   96.5323   -3.0009   18.4101 O   0  0
   97.7165   -2.3045   20.7682 N   0  0
   95.5135   -3.3063   20.4971 N   0  0
   93.0152   -4.7951   16.8543 N   0  0
   92.4680   -4.9194   18.0554 N   0  0
   93.2755   -4.4446   18.9939 N   0  0
   91.1091   -6.9406   16.7331 N   0  0
  1 22  1  0
  2 22  1  0
  2  3  1  0
  3  4  1  0
  5  6  1  0
  7 24  1  0
  7 25  1  0
  8  9  1  0
  9 28  1  0
 10 26  1  0
 11 10  1  0
 12 13  1  0
 14 29  1  0
 15 16  1  0
 17 18  1  0
 17 13  1  0
 19 20  1  0
 21  4  1  0
 25  8  1  0
 26 27  1  0
 26 12  1  0
  4  5  2  0
  6 24  2  0
  7 21  2  0
  8 23  2  0
  9 10  2  0
 13 29  2  0
 14 15  2  0
 16 17  2  0
 18 19  2  0
 20 12  2  0
 27 28  2  0
M  END
> <Name>
CSC063940296

> <rmsd>
0.328015059

$$$$
CSC027908469 MCULE-6266300089 MolPort-009-592-148 PubChem-45836604 ZINC000103115739
  SciTegic06052412183D

 41 45  0  0  0  0            999 V2000
   99.5237   -5.8274   18.3240 C   0  0
   98.1062   -5.8417   18.8562 C   0  0
   96.8744   -3.7312   19.2538 C   0  0
   96.6685   -2.6083   20.0688 C   0  0
   97.2903   -1.3639   22.1279 C   0  0
   96.2547   -1.7225   23.1449 C   0  0
   95.5899   -2.7660   25.3294 C   0  0
   96.1316   -2.6649   26.7550 C   0  0
   98.2969   -2.6258   26.1416 C   0  0
   98.0124   -2.7255   24.6438 C   0  0
   95.6755   -1.6766   19.7259 C   0  0
   94.8973   -1.8594   18.5811 C   0  0
   95.1005   -2.9743   17.7607 C   0  0
   94.2957   -3.1526   16.5421 C   0  0
   92.5108   -2.3088   15.0455 C   0  0
   91.4310   -3.3275   15.2176 C   0  0
   91.5476   -4.6825   14.6379 C   0  0
   90.9366   -5.8263   15.1242 C   0  0
   91.3788   -6.8835   14.3690 C   0  0
   90.9504   -8.1900   14.6112 C   0  0
   90.0478   -8.3957   15.6692 C   0  0
   89.5997   -7.3096   16.4518 C   0  0
   90.0466   -6.0036   16.1842 C   0  0
   92.8687   -7.2990   12.4099 C   0  0
   92.3459   -5.1170   13.5661 C   0  0
   93.1378   -4.2618   12.6593 C   0  0
   94.4594   -4.6050   12.3409 C   0  0
   95.2063   -3.8074   11.4694 C   0  0
   94.6335   -2.6637   10.9065 C   0  0
   93.3148   -2.3181   11.2154 C   0  0
   92.5687   -3.1168   12.0870 C   0  0
   96.0885   -3.9064   18.1032 C   0  0
   97.8655   -4.6562   19.6011 O   0  0
   97.4670   -2.4344   21.2061 O   0  0
   97.3437   -3.3701   26.8577 O   0  0
   95.0441   -1.4802   22.8934 O   0  0
   93.3055   -2.2169   16.2222 O   0  0
   90.4327   -3.0340   15.9264 O   0  0
   94.5115   -4.1384   15.7839 O   0  0
   96.6242   -2.3393   24.3868 N   0  0
   92.2377   -6.4648   13.4241 N   0  0
  1  2  1  0
  2 33  1  0
  3 33  1  0
  4 34  1  0
  4 11  1  0
  5 34  1  0
  5  6  1  0
  6 40  1  0
  7 40  1  0
  7  8  1  0
  8 35  1  0
  9 35  1  0
  9 10  1  0
 10 40  1  0
 12 13  1  0
 13 14  1  0
 14 37  1  0
 15 37  1  0
 15 16  1  0
 16 17  1  0
 17 18  1  0
 18 19  1  0
 19 41  1  0
 20 21  1  0
 22 23  1  0
 24 41  1  0
 25 26  1  0
 27 28  1  0
 29 30  1  0
 31 26  1  0
 32  3  1  0
 41 25  1  0
  3  4  2  0
  6 36  2  0
 11 12  2  0
 13 32  2  0
 14 39  2  0
 16 38  2  0
 19 20  2  0
 21 22  2  0
 23 18  2  0
 25 17  2  0
 26 27  2  0
 28 29  2  0
 30 31  2  0
M  END
> <Name>
CSC027908469 MCULE-6266300089 MolPort-009-592-148 PubChem-45836604 ZINC000103115739

> <rmsd>
0.395950049

$$$$
CSC027949772 MCULE-9785220023 MolPort-005-820-249 PubChem-16276851 ZINC000150398441
  SciTegic06052412183D

 41 45  0  0  0  0            999 V2000
   95.7052   -4.4062   28.7672 C   0  0
   95.9878   -3.8600   26.3835 C   0  0
   95.4345   -3.7890   25.0192 C   0  0
   94.1401   -4.1274   24.6052 C   0  0
   93.0873   -4.6104   25.5487 C   0  0
   93.9247   -3.9448   23.2184 C   0  0
   92.6453   -4.2276   22.5227 C   0  0
   90.4130   -5.2626   22.5173 C   0  0
   95.0619   -3.4627   22.5643 C   0  0
   96.2965   -2.7444   20.4387 C   0  0
   96.2285   -2.6132   18.9595 C   0  0
   95.7737   -3.6173   16.6114 C   0  0
   94.5921   -2.8731   15.0270 C   0  0
   93.4470   -2.5035   14.1397 C   0  0
   92.4667   -4.9099   13.7451 C   0  0
   90.7936   -5.9126   14.8253 C   0  0
   89.5046   -6.1326   15.3106 C   0  0
   89.2762   -7.2572   16.1216 C   0  0
   90.3288   -8.1397   16.4345 C   0  0
   91.6221   -7.9092   15.9396 C   0  0
   91.8209   -6.7895   15.1378 C   0  0
   93.2845   -3.7908   16.9754 C   0  0
   93.2600   -4.9063   17.8281 C   0  0
   92.0914   -5.2551   18.5102 C   0  0
   90.9331   -4.4918   18.3469 C   0  0
   90.9443   -3.3787   17.5028 C   0  0
   92.1137   -3.0317   16.8199 C   0  0
   95.2027   -4.3194   27.4420 O   0  0
   97.1791   -3.4995   26.5879 O   0  0
   92.4612   -3.8048   21.3482 O   0  0
   91.6437   -4.9649   23.1583 O   0  0
   97.3605   -2.4359   21.0379 O   0  0
   95.1545   -3.2334   21.1512 N   0  0
   96.6204   -3.1722   15.6639 N   0  0
   95.8794   -2.7121   14.6669 N   0  0
   91.1465   -4.8612   14.0445 N   0  0
   94.4824   -3.4479   16.2471 N   0  0
   96.3358   -4.2541   18.1903 S   0  0
   93.2903   -3.6729   12.7534 S   0  0
   93.2405   -6.2557   14.4227 S   0  0
   96.3079   -3.2716   23.6788 S   0  0
  1 28  1  0
  2 28  1  0
  2  3  1  0
  3 41  1  0
  4  6  1  0
  5  4  1  0
  6  7  1  0
  7 31  1  0
  8 31  1  0
  9 33  1  0
  9 41  1  0
 11 10  1  0
 11 38  1  0
 12 38  1  0
 13 37  1  0
 14 13  1  0
 14 39  1  0
 15 39  1  0
 15 40  1  0
 16 36  1  0
 17 18  1  0
 19 20  1  0
 21 40  1  0
 21 16  1  0
 23 24  1  0
 25 26  1  0
 27 22  1  0
 33 10  1  0
 34 35  1  0
 37 22  1  0
 37 12  1  0
  2 29  2  0
  3  4  2  0
  6  9  2  0
  7 30  2  0
 10 32  2  0
 12 34  2  0
 13 35  2  0
 15 36  2  0
 16 17  2  0
 18 19  2  0
 20 21  2  0
 22 23  2  0
 24 25  2  0
 26 27  2  0
M  END
> <Name>
CSC027949772 MCULE-9785220023 MolPort-005-820-249 PubChem-16276851 ZINC000150398441

> <rmsd>
0.413538665

$$$$
CSC081951281
  SciTegic06052412183D

 28 31  0  0  0  0            999 V2000
   96.0150   -6.4038   20.9900 O   0  0
   93.6786   -5.7509   16.3905 O   0  0
   96.4052   -5.3808   20.3630 C   0  0
   95.9459   -6.5187   18.1585 C   0  0
   96.0292   -6.2074   16.6734 C   0  0
   94.9784   -5.1853   16.2711 C   0  0
   92.8011   -5.8698   15.3067 C   0  0
   91.5351   -6.4437   15.5019 C   0  0
   89.9366   -7.4433   16.9495 C   0  0
   89.0297   -7.5818   15.8955 C   0  0
   89.3879   -7.1407   14.6204 C   0  0
   90.6430   -6.5682   14.4129 C   0  0
   91.0170   -6.1223   13.1439 C   0  0
   92.2769   -5.5512   12.9502 C   0  0
   93.1636   -5.4255   14.0237 C   0  0
   96.8670   -4.1941   21.1034 C   0  0
   97.3009   -3.0513   20.4214 C   0  0
   97.7435   -1.9374   22.4705 C   0  0
   97.3195   -3.0550   23.2014 C   0  0
   96.8802   -4.1855   22.5030 C   0  0
   97.7281   -2.0324   25.4295 C   0  0
   97.5654   -2.4799   26.7295 C   0  0
   96.3979   -5.3738   18.9334 N   0  0
   91.1578   -6.8833   16.7343 N   0  0
   97.7254   -1.9592   21.1112 N   0  0
   97.3333   -3.0454   24.6362 N   0  0
   97.0814   -3.7385   26.6705 N   0  0
   96.9502   -4.0567   25.3942 N   0  0
  3 23  1  0
  3 16  1  0
  4 23  1  0
  4  5  1  0
  5  6  1  0
  6  2  1  0
  7  2  1  0
  7  8  1  0
  9 24  1  0
 10 11  1  0
 12 13  1  0
 12  8  1  0
 14 15  1  0
 17 25  1  0
 18 19  1  0
 19 26  1  0
 20 16  1  0
 22 27  1  0
 26 21  1  0
 26 28  1  0
  3  1  2  0
  8 24  2  0
  9 10  2  0
 11 12  2  0
 13 14  2  0
 15  7  2  0
 16 17  2  0
 18 25  2  0
 19 20  2  0
 21 22  2  0
 27 28  2  0
M  END
> <Name>
CSC081951281

> <rmsd>
0.36811623

$$$$
CSC090071514
  SciTegic06052412183D

 27 30  0  0  0  0            999 V2000
   98.2154   -4.5503   22.1176 O   0  0
   97.4324   -2.3846   21.2861 O   0  0
   97.1377   -3.5338   26.4197 O   0  0
   97.0368   -3.6169   22.0512 S   0  0
   96.5408   -3.1796   23.6555 N   0  0
   92.5256   -5.9789   17.7607 N   0  0
   90.5493   -7.2710   17.2257 N   0  0
   96.2228   -4.4136   24.3783 C   0  0
   95.9762   -4.0922   25.8543 C   0  0
   97.3504   -2.2943   25.7877 C   0  0
   97.6726   -2.5170   24.3079 C   0  0
   95.7069   -4.4017   21.2159 C   0  0
   94.4868   -3.7326   21.0692 C   0  0
   93.4217   -4.3532   20.4101 C   0  0
   93.5722   -5.6475   19.9010 C   0  0
   92.4473   -6.2983   19.1772 C   0  0
   91.5743   -6.4724   16.8130 C   0  0
   91.6887   -6.1397   15.4529 C   0  0
   92.7264   -5.3223   14.9824 C   0  0
   92.8127   -5.0097   13.6224 C   0  0
   91.8646   -5.5107   12.7251 C   0  0
   90.8259   -6.3265   13.1835 C   0  0
   90.7330   -6.6434   14.5418 C   0  0
   89.6981   -7.4574   15.0004 C   0  0
   89.6227   -7.7629   16.3600 C   0  0
   94.7941   -6.3145   20.0397 C   0  0
   95.8590   -5.6935   20.6987 C   0  0
  4  5  1  0
  4 12  1  0
  6 17  1  0
  8  5  1  0
  8  9  1  0
  9  3  1  0
 10  3  1  0
 10 11  1  0
 11  5  1  0
 13 14  1  0
 15 26  1  0
 16 15  1  0
 16  6  1  0
 17 18  1  0
 19 20  1  0
 21 22  1  0
 23 24  1  0
 23 18  1  0
 25  7  1  0
 27 12  1  0
  4  1  2  0
  4  2  2  0
 12 13  2  0
 14 15  2  0
 17  7  2  0
 18 19  2  0
 20 21  2  0
 22 23  2  0
 24 25  2  0
 26 27  2  0
M  END
> <Name>
CSC090071514

> <rmsd>
0.410381764

$$$$
CSC084054419
  SciTegic06052412183D

 28 30  0  0  0  0            999 V2000
   99.1059   -4.0858   25.6084 O   0  0
   97.3021   -3.4906   26.8919 O   0  0
   97.4863   -2.3021   21.1536 O   0  0
   93.9538   -2.7254   15.2311 O   0  0
   97.7469   -3.8544   25.7722 C   0  0
   96.8236   -3.9968   24.6148 C   0  0
   96.7390   -2.6849   23.8613 C   0  0
   96.2879   -2.6261   21.3800 C   0  0
   95.3441   -2.7888   20.2604 C   0  0
   95.7622   -2.5660   18.9411 C   0  0
   94.8647   -2.7187   17.8809 C   0  0
   93.5363   -3.0964   18.1249 C   0  0
   92.8242   -3.0779   15.6625 C   0  0
   91.7223   -3.3423   14.6958 C   0  0
   91.6672   -4.7950   14.3600 C   0  0
   92.3157   -5.4214   13.3016 C   0  0
   91.3015   -6.9576   14.4115 C   0  0
   90.8076   -8.1778   14.8685 C   0  0
   90.0151   -8.1691   16.0315 C   0  0
   89.7416   -6.9571   16.7030 C   0  0
   90.2538   -5.7403   16.2190 C   0  0
   91.0315   -5.7862   15.0637 C   0  0
   93.1199   -3.3193   19.4410 C   0  0
   94.0163   -3.1666   20.5024 C   0  0
   95.8467   -2.8351   22.7244 N   0  0
   92.5868   -3.2636   17.0639 N   0  0
   92.0825   -6.7584   13.3340 N   0  0
   89.5144   -9.3321   16.5128 F   0  0
  5  1  1  0
  6  5  1  0
  6  7  1  0
  7 25  1  0
  8  9  1  0
 10 11  1  0
 12 26  1  0
 12 23  1  0
 14 13  1  0
 14 15  1  0
 16 27  1  0
 18 19  1  0
 19 28  1  0
 20 21  1  0
 22 15  1  0
 22 17  1  0
 24  9  1  0
 25  8  1  0
 26 13  1  0
 27 17  1  0
  5  2  2  0
  8  3  2  0
  9 10  2  0
 11 12  2  0
 13  4  2  0
 15 16  2  0
 17 18  2  0
 19 20  2  0
 21 22  2  0
 23 24  2  0
M  END
> <Name>
CSC084054419

> <rmsd>
0.366982371

$$$$
CSC026736567 MCULE-8829437158 MolPort-044-301-938 PubChem-1390887
  SciTegic06052412183D

 36 40  0  0  0  0            999 V2000
   95.7676   -3.6685   20.2961 C   0  0
   94.7554   -4.3688   19.4980 C   0  0
   93.6605   -4.5768   16.0380 C   0  0
   92.6494   -5.2332   15.1973 C   0  0
   91.6690   -6.1253   15.5748 C   0  0
   91.3397   -6.6600   16.8204 C   0  0
   90.2642   -7.5637   16.8776 C   0  0
   89.5545   -7.9088   15.7074 C   0  0
   89.9100   -7.3525   14.4651 C   0  0
   90.9784   -6.4580   14.4358 C   0  0
   92.4886   -5.0787   13.8248 C   0  0
   93.3262   -4.2074   12.9539 C   0  0
   96.9950   -2.9316   21.9090 C   0  0
   97.5873   -2.6568   23.2297 C   0  0
   98.6862   -1.7971   23.3426 C   0  0
   99.2483   -1.5330   24.5925 C   0  0
   98.7199   -2.1252   25.7508 C   0  0
   97.6190   -2.9890   25.6460 C   0  0
   95.9980   -4.4755   26.7836 C   0  0
   97.0608   -3.2504   24.3840 C   0  0
  100.4310   -1.0707   27.2139 C   0  0
  101.6561   -1.9040   27.0470 C   0  0
  102.3472   -1.8996   25.8301 C   0  0
  103.4897   -2.6896   25.6700 C   0  0
  103.9398   -3.4884   26.7260 C   0  0
  103.2472   -3.4981   27.9413 C   0  0
  102.1047   -2.7076   28.1015 C   0  0
   95.9235   -3.7755   21.6661 C   0  0
   93.9526   -5.1661   20.0544 O   0  0
   97.0964   -3.5742   26.8047 O   0  0
   99.2636   -1.8618   27.0144 O   0  0
   94.6827   -4.1478   18.0899 N   0  0
   93.7115   -4.7869   17.3115 N   0  0
   91.4647   -5.8279   13.3495 N   0  0
   96.6774   -2.8254   19.7743 N   0  0
   97.4294   -2.3737   20.7625 N   0  0
  1  2  1  0
  1 35  1  0
  2 32  1  0
  3  4  1  0
  4  5  1  0
  6  7  1  0
  8  9  1  0
 10 34  1  0
 10  5  1  0
 12 11  1  0
 13 14  1  0
 13 28  1  0
 15 16  1  0
 17 18  1  0
 17 31  1  0
 18 30  1  0
 19 30  1  0
 20 14  1  0
 21 31  1  0
 21 22  1  0
 23 24  1  0
 25 26  1  0
 27 22  1  0
 32 33  1  0
 34 11  1  0
 35 36  1  0
  2 29  2  0
  3 33  2  0
  5  6  2  0
  7  8  2  0
  9 10  2  0
 11  4  2  0
 13 36  2  0
 14 15  2  0
 16 17  2  0
 18 20  2  0
 22 23  2  0
 24 25  2  0
 26 27  2  0
 28  1  2  0
M  END
> <Name>
CSC026736567 MCULE-8829437158 MolPort-044-301-938 PubChem-1390887

> <rmsd>
0.414353222

$$$$
CSC026402203 MCULE-7133050214 MolPort-005-825-044 PubChem-25694041 ZINC000013060912
  SciTegic06052412183D

 33 37  0  0  0  0            999 V2000
   91.7319   -7.7152   19.6539 O   0  0
   99.8303   -3.7903   26.7194 O   0  0
   97.0724   -3.6708   26.8072 O   0  0
   95.3551   -2.7369   21.9716 O   0  0
   97.4225   -2.2743   20.7563 O   0  0
   92.7327   -7.1498   19.1392 C   0  0
   91.6406   -6.8335   16.8353 C   0  0
   91.7833   -6.3138   15.5340 C   0  0
   90.7234   -6.4443   14.6026 C   0  0
   90.8592   -5.9300   13.3101 C   0  0
   92.0404   -5.2856   12.9329 C   0  0
   93.0899   -5.1530   13.8461 C   0  0
   92.9629   -5.6643   15.1407 C   0  0
   89.5411   -7.0866   14.9736 C   0  0
   89.4010   -7.6014   16.2632 C   0  0
   90.4424   -7.4756   17.1855 C   0  0
   93.9429   -6.9061   19.9722 C   0  0
   94.5327   -5.6369   21.9162 C   0  0
   96.0513   -5.8168   21.7755 C   0  0
   97.6499   -3.3831   23.1591 C   0  0
   96.9833   -3.4839   24.3864 C   0  0
   97.7174   -3.5969   25.5695 C   0  0
   99.1182   -3.6370   25.5268 C   0  0
   99.1678   -4.1895   27.9213 C   0  0
   97.8023   -3.5061   28.0253 C   0  0
   99.7855   -3.5256   24.3044 C   0  0
   99.0502   -3.4000   23.1212 C   0  0
   95.9617   -4.7336   19.6046 C   0  0
   94.4442   -4.5629   19.7652 C   0  0
   92.7175   -6.7006   17.7783 N   0  0
   93.8526   -5.5989   20.6189 N   0  0
   96.6579   -4.8135   20.8934 N   0  0
   96.7348   -3.2531   21.6668 S   0  0
  6 30  1  0
  7  8  1  0
  8  9  1  0
  9 14  1  0
 10 11  1  0
 12 13  1  0
 15 16  1  0
 17  6  1  0
 17 31  1  0
 18 31  1  0
 18 19  1  0
 19 32  1  0
 21 22  1  0
 22  3  1  0
 23  2  1  0
 23 26  1  0
 24  2  1  0
 24 25  1  0
 25  3  1  0
 27 20  1  0
 28 32  1  0
 28 29  1  0
 29 31  1  0
 30  7  1  0
 33 32  1  0
 33 20  1  0
  6  1  2  0
  9 10  2  0
 11 12  2  0
 13  8  2  0
 14 15  2  0
 16  7  2  0
 20 21  2  0
 22 23  2  0
 26 27  2  0
 33  4  2  0
 33  5  2  0
M  END
> <Name>
CSC026402203 MCULE-7133050214 MolPort-005-825-044 PubChem-25694041 ZINC000013060912

> <rmsd>
0.351233214

$$$$
CSC028036298 MCULE-5911893321 MolPort-044-401-099 PubChem-2420344
  SciTegic06052412183D

 32 36  0  0  0  0            999 V2000
   96.5930   -4.2300   28.1467 C   0  0
   97.1858   -3.3802   25.9006 C   0  0
   96.1570   -4.1067   25.2801 C   0  0
   95.9729   -4.0262   23.8972 C   0  0
   96.8132   -3.2196   23.1167 C   0  0
   96.6239   -3.1308   21.6587 C   0  0
   95.9091   -3.3726   19.6380 C   0  0
   95.1589   -3.7797   18.4446 C   0  0
   93.4208   -4.8235   16.2859 C   0  0
   92.5741   -5.3210   15.1677 C   0  0
   91.4903   -6.2252   15.3517 C   0  0
   90.7309   -6.6518   14.2314 C   0  0
   89.6634   -7.5395   14.3951 C   0  0
   89.3333   -8.0158   15.6644 C   0  0
   90.0699   -7.6061   16.7760 C   0  0
   91.1376   -6.7193   16.6194 C   0  0
   91.0376   -6.1932   12.9544 C   0  0
   92.0934   -5.3097   12.7593 C   0  0
   92.8685   -4.8668   13.8588 C   0  0
   93.9280   -3.9730   13.6182 C   0  0
   94.2101   -3.5312   12.3233 C   0  0
   93.4378   -3.9758   11.2487 C   0  0
   92.3819   -4.8631   11.4665 C   0  0
   95.6507   -3.7946   20.9295 C   0  0
   97.8393   -2.4953   23.7387 C   0  0
   98.0237   -2.5759   25.1219 C   0  0
   97.3960   -3.4392   27.2809 O   0  0
   95.4930   -3.3239   17.3183 O   0  0
   97.3923   -2.3773   20.8486 N   0  0
   96.9542   -2.5255   19.6107 N   0  0
   94.0558   -4.6908   18.5767 N   0  0
   93.2506   -5.1656   17.5235 N   0  0
  1 27  1  0
  2 27  1  0
  3  4  1  0
  5  6  1  0
  5 25  1  0
  7  8  1  0
  8 31  1  0
  9 10  1  0
 10 11  1  0
 11 12  1  0
 12 17  1  0
 13 14  1  0
 15 16  1  0
 18 19  1  0
 19 20  1  0
 21 22  1  0
 23 18  1  0
 24  6  1  0
 26  2  1  0
 30 29  1  0
 30  7  1  0
 31 32  1  0
  2  3  2  0
  4  5  2  0
  6 29  2  0
  7 24  2  0
  8 28  2  0
  9 32  2  0
 12 13  2  0
 14 15  2  0
 16 11  2  0
 17 18  2  0
 19 10  2  0
 20 21  2  0
 22 23  2  0
 25 26  2  0
M  END
> <Name>
CSC028036298 MCULE-5911893321 MolPort-044-401-099 PubChem-2420344

> <rmsd>
0.388174206

$$$$
CSC080560872
  SciTegic06052412183D

 29 32  0  0  0  0            999 V2000
   97.6031   -2.4728   21.0245 O   0  0
   94.8232   -6.2142   22.0348 O   0  0
   96.6302   -2.2877   22.0068 C   0  0
   95.9711   -3.6160   22.3384 C   0  0
   95.0687   -3.4532   23.5564 C   0  0
   95.8628   -3.4130   24.8200 C   0  0
   96.5758   -4.5377   25.2475 C   0  0
   97.2983   -4.4746   26.4411 C   0  0
   96.6086   -2.2281   26.7821 C   0  0
   95.8736   -2.2508   25.5945 C   0  0
   94.6179   -5.3778   21.1125 C   0  0
   93.8009   -5.7533   19.9456 C   0  0
   93.2434   -7.0348   19.8521 C   0  0
   92.4694   -7.3891   18.7440 C   0  0
   92.2403   -6.4726   17.7038 C   0  0
   92.7949   -5.1873   17.8105 C   0  0
   93.5693   -4.8311   18.9175 C   0  0
   91.3940   -6.8628   16.5402 C   0  0
   91.4704   -6.2267   15.2738 C   0  0
   92.4535   -4.6086   13.8255 C   0  0
   91.6213   -4.9981   12.7751 C   0  0
   90.7014   -6.0264   12.9783 C   0  0
   90.6202   -6.6504   14.2233 C   0  0
   89.7137   -7.6906   14.4229 C   0  0
   89.6429   -8.3230   15.6625 C   0  0
   90.4746   -7.9139   16.7060 C   0  0
   97.3008   -3.3306   27.1773 N   0  0
   95.1843   -4.0656   21.1980 N   0  0
   92.3631   -5.2243   15.0348 N   0  0
  3  1  1  0
  3  4  1  0
  4  5  1  0
  4 28  1  0
  5  6  1  0
  7  8  1  0
  9 27  1  0
 10  6  1  0
 11 12  1  0
 13 14  1  0
 15 16  1  0
 15 18  1  0
 17 12  1  0
 18 19  1  0
 20 29  1  0
 21 22  1  0
 23 24  1  0
 23 19  1  0
 25 26  1  0
 28 11  1  0
  6  7  2  0
  8 27  2  0
  9 10  2  0
 11  2  2  0
 12 13  2  0
 14 15  2  0
 16 17  2  0
 19 29  2  0
 20 21  2  0
 22 23  2  0
 24 25  2  0
 26 18  2  0
M  END
> <Name>
CSC080560872

> <rmsd>
0.367571831

$$$$
CSC085411817
  SciTegic06052412183D

 27 29  0  0  0  0            999 V2000
   97.0720   -3.4858   26.4706 N   0  0
   97.0045   -4.5405   21.6529 N   0  0
   94.8390   -7.0577   21.5040 N   0  0
   92.8326   -6.6326   20.1374 N   0  0
   90.4983   -8.1655   15.0121 N   0  0
   96.1233   -5.2771   23.7083 N   0  0
   95.9032   -3.7954   25.6652 C   0  0
   96.3068   -4.0459   24.2533 C   0  0
   96.8501   -3.0177   23.4803 C   0  0
   97.1986   -3.2950   22.1595 C   0  0
   96.4744   -5.5298   22.4194 C   0  0
   96.2461   -6.8820   21.8359 C   0  0
   94.2275   -6.4413   20.3692 C   0  0
   92.1527   -6.0301   19.0037 C   0  0
   90.6888   -6.4277   19.0216 C   0  0
   89.9624   -5.8262   17.8290 C   0  0
   90.3169   -6.5421   16.5660 C   0  0
   90.0295   -7.8665   16.2506 C   0  0
   91.0695   -7.0323   14.5646 C   0  0
   91.6939   -6.8442   13.3333 C   0  0
   92.2309   -5.5726   13.0606 C   0  0
   92.1335   -4.5321   14.0105 C   0  0
   91.4973   -4.7518   15.2455 C   0  0
   90.9763   -6.0225   15.4822 C   0  0
   97.7421   -2.2982   21.3611 O   0  0
   94.9140   -5.7392   19.5774 O   0  0
   92.6568   -3.3146   13.7308 F   0  0
  3 13  1  0
  5 19  1  0
  7  1  1  0
  7  8  1  0
  8  6  1  0
  9 10  1  0
 10 25  1  0
 11  2  1  0
 12 11  1  0
 12  3  1  0
 13  4  1  0
 14  4  1  0
 14 15  1  0
 15 16  1  0
 16 17  1  0
 18  5  1  0
 20 21  1  0
 22 27  1  0
 22 23  1  0
 24 17  1  0
 24 19  1  0
  8  9  2  0
 10  2  2  0
 11  6  2  0
 13 26  2  0
 17 18  2  0
 19 20  2  0
 21 22  2  0
 23 24  2  0
M  END
> <Name>
CSC085411817

> <rmsd>
0.414188504

$$$$
CSC073578835
  SciTegic06052412183D

 29 32  0  0  0  0            999 V2000
   98.7055   -5.1279   28.2655 C   0  0
   98.2206   -4.9980   25.8370 C   0  0
   97.4845   -4.1437   25.0478 C   0  0
   96.5333   -3.3565   22.9088 C   0  0
   95.0639   -3.7110   23.0706 C   0  0
   95.5439   -3.6855   20.6973 C   0  0
   96.8603   -3.4992   21.4274 C   0  0
   93.1635   -4.1368   21.4545 C   0  0
   92.6833   -4.3114   20.0527 C   0  0
   92.8142   -5.7645   19.6421 C   0  0
   91.2774   -6.7850   17.9230 C   0  0
   90.8557   -6.9176   16.5209 C   0  0
   91.3936   -6.2912   15.4180 C   0  0
   92.4379   -5.3825   15.2569 C   0  0
   92.7148   -4.9450   13.9485 C   0  0
   91.9543   -5.4191   12.8556 C   0  0
   90.9063   -6.3375   13.0559 C   0  0
   90.6588   -6.7508   14.3622 C   0  0
   96.9327   -3.1775   25.8711 C   0  0
   98.0937   -4.5343   27.0918 N   0  0
   94.5407   -3.8504   21.7284 N   0  0
   92.3624   -5.9225   18.2702 N   0  0
   89.7182   -7.6121   14.7858 N   0  0
   89.8406   -7.7134   16.1067 N   0  0
   97.3320   -3.4531   27.1281 N   0  0
   97.3413   -4.2514   23.6629 O   0  0
   97.4893   -2.3412   20.9723 O   0  0
   92.3451   -4.2706   22.4032 O   0  0
   90.6757   -7.4375   18.8182 O   0  0
  1 20  1  0
  3 26  1  0
  3 19  1  0
  4 26  1  0
  4  5  1  0
  5 21  1  0
  6 21  1  0
  6  7  1  0
  7 27  1  0
  7  4  1  0
  9  8  1  0
  9 10  1  0
 10 22  1  0
 11 12  1  0
 13 14  1  0
 15 16  1  0
 17 18  1  0
 18 13  1  0
 20  2  1  0
 20 25  1  0
 21  8  1  0
 22 11  1  0
 24 23  1  0
 24 12  1  0
  2  3  2  0
  8 28  2  0
 11 29  2  0
 12 13  2  0
 14 15  2  0
 16 17  2  0
 18 23  2  0
 19 25  2  0
M  END
> <Name>
CSC073578835

> <rmsd>
0.383181632

$$$$
CSC090058612
  SciTegic06052412183D

 29 32  0  0  0  0            999 V2000
   97.4615   -2.3824   21.1095 O   0  0
   97.1442   -3.5180   26.5937 O   0  0
   96.2546   -2.6806   20.8923 C   0  0
   95.5100   -1.4876   22.9993 C   0  0
   96.2208   -2.3635   24.0186 C   0  0
   96.4965   -1.5783   25.2934 C   0  0
   95.2284   -1.4316   26.1430 C   0  0
   94.8936   -2.7314   26.8749 C   0  0
   96.1545   -3.2578   27.5583 C   0  0
   97.5888   -2.2683   26.1215 C   0  0
   96.9003   -3.9904   18.8409 C   0  0
   96.2344   -4.6773   17.7015 C   0  0
   96.0201   -3.9905   16.5025 C   0  0
   95.3817   -4.6282   15.4343 C   0  0
   94.9567   -5.9546   15.5643 C   0  0
   94.2580   -6.6312   14.4339 C   0  0
   92.3605   -5.1956   13.6305 C   0  0
   90.7169   -5.9714   14.7354 C   0  0
   89.4729   -6.2319   15.3035 C   0  0
   89.3984   -7.2745   16.2469 C   0  0
   90.5513   -8.0146   16.5939 C   0  0
   91.7942   -7.7230   16.0015 C   0  0
   91.8256   -6.6882   15.0688 C   0  0
   95.1547   -6.6356   16.7704 C   0  0
   95.7946   -5.9985   17.8376 C   0  0
   95.2313   -2.2509   21.7911 N   0  0
   95.8982   -3.4463   19.7425 N   0  0
   92.8653   -6.2094   14.3737 N   0  0
   91.0250   -5.0251   13.8292 N   0  0
  3 26  1  0
  3 27  1  0
  4 26  1  0
  4  5  1  0
  5  6  1  0
  6  7  1  0
  7  8  1  0
  8  9  1  0
  9  2  1  0
 10  2  1  0
 10  6  1  0
 11 27  1  0
 11 12  1  0
 13 14  1  0
 15 24  1  0
 16 15  1  0
 16 28  1  0
 18 29  1  0
 19 20  1  0
 21 22  1  0
 23 28  1  0
 23 18  1  0
 25 12  1  0
 28 17  1  0
  3  1  2  0
 12 13  2  0
 14 15  2  0
 17 29  2  0
 18 19  2  0
 20 21  2  0
 22 23  2  0
 24 25  2  0
M  END
> <Name>
CSC090058612

> <rmsd>
0.388501853

$$$$
CSC027858225 MCULE-8440330669 MolPort-044-234-455 PubChem-126836302
  SciTegic06052412183D

 38 41  0  0  0  0            999 V2000
   96.7699    0.0117   23.3118 O   0  0
   94.7625   -1.0879   23.3849 O   0  0
   97.6552   -2.3812   20.9221 O   0  0
   93.8768   -4.1488   16.5190 O   0  0
   95.4010   -5.2301   14.9308 O   0  0
   96.0189   -1.1490   23.4294 C   0  0
   96.7128   -2.4635   23.6108 C   0  0
   96.8401   -3.2968   21.2205 C   0  0
   96.4134   -4.2658   20.1965 C   0  0
   96.9483   -4.2105   18.9018 C   0  0
   96.5498   -5.1347   17.9326 C   0  0
   95.6068   -6.1194   18.2457 C   0  0
   95.1997   -7.1257   17.2049 C   0  0
   92.8280   -6.7475   17.4509 C   0  0
   91.5554   -7.1645   16.7930 C   0  0
   90.4955   -6.2561   16.6973 C   0  0
   89.3075   -6.6296   16.0622 C   0  0
   89.1758   -7.9139   15.5262 C   0  0
   90.2304   -8.8265   15.6279 C   0  0
   91.4189   -8.4533   16.2619 C   0  0
   92.8106   -5.3111   14.3673 C   0  0
   91.9222   -4.2334   14.2720 C   0  0
   90.9057   -4.2461   13.3123 C   0  0
   90.7749   -5.3374   12.4477 C   0  0
   91.6638   -6.4126   12.5381 C   0  0
   92.6800   -6.3996   13.4979 C   0  0
   95.0799   -6.1874   19.5406 C   0  0
   95.4792   -5.2633   20.5100 C   0  0
   96.4418   -3.0447   24.9642 C   0  0
   95.2225   -3.6654   25.2671 C   0  0
   95.0043   -4.1862   26.5436 C   0  0
   96.0087   -4.0727   27.5072 C   0  0
   97.4155   -2.9442   25.9616 C   0  0
   96.3395   -3.3997   22.5571 N   0  0
   93.9426   -6.8145   16.5065 N   0  0
   97.1823   -3.4568   27.2002 N   0  0
   94.0583   -5.3279   15.6008 S   0  0
   89.5003   -5.3555   11.2492 Cl  0  0
  6  1  1  0
  7  6  1  0
  7 34  1  0
  7 29  1  0
  8  9  1  0
 10 11  1  0
 12 27  1  0
 13 12  1  0
 13 35  1  0
 14 35  1  0
 14 15  1  0
 16 17  1  0
 18 19  1  0
 20 15  1  0
 22 23  1  0
 24 38  1  0
 24 25  1  0
 26 21  1  0
 28  9  1  0
 30 31  1  0
 32 36  1  0
 33 29  1  0
 34  8  1  0
 37 35  1  0
 37 21  1  0
  6  2  2  0
  8  3  2  0
  9 10  2  0
 11 12  2  0
 15 16  2  0
 17 18  2  0
 19 20  2  0
 21 22  2  0
 23 24  2  0
 25 26  2  0
 27 28  2  0
 29 30  2  0
 31 32  2  0
 33 36  2  0
 37  4  2  0
 37  5  2  0
M  END
> <Name>
CSC027858225 MCULE-8440330669 MolPort-044-234-455 PubChem-126836302

> <rmsd>
0.407343626

$$$$
CSC098014792
  SciTegic06052412183D

 27 29  0  0  0  0            999 V2000
   97.1207   -3.4900   26.9098 N   0  0
   96.8188   -3.9929   22.0269 N   0  0
   94.1436   -5.7474   22.1264 N   0  0
   96.0368   -4.2551   24.2322 N   0  0
   96.4667   -2.5743   25.9915 C   0  0
   96.6024   -3.0731   24.5953 C   0  0
   97.2968   -2.3158   23.6525 C   0  0
   97.3940   -2.8054   22.3509 C   0  0
   96.1498   -4.7204   22.9600 C   0  0
   95.5016   -6.0028   22.5776 C   0  0
   93.2845   -6.7981   21.6839 C   0  0
   91.9065   -6.4769   21.2143 C   0  0
   91.9311   -5.9383   19.7932 C   0  0
   92.1568   -7.0643   18.8014 C   0  0
   91.2778   -6.9336   16.4888 C   0  0
   91.3578   -6.3667   15.2046 C   0  0
   92.3328   -5.4059   14.9028 C   0  0
   92.4016   -4.8498   13.6221 C   0  0
   91.4973   -5.2490   12.6337 C   0  0
   90.5202   -6.2060   12.9212 C   0  0
   90.4442   -6.7672   14.1991 C   0  0
   89.4666   -7.7228   14.4828 C   0  0
   89.3881   -8.2849   15.7585 C   0  0
   90.2866   -7.8937   16.7543 C   0  0
   98.0764   -2.0786   21.3852 O   0  0
   93.6876   -7.9918   21.6654 O   0  0
   92.1815   -6.5361   17.4825 O   0  0
  3 11  1  0
  5  1  1  0
  5  6  1  0
  6  4  1  0
  7  8  1  0
  8 25  1  0
  9  2  1  0
 10  9  1  0
 10  3  1  0
 12 11  1  0
 12 13  1  0
 13 14  1  0
 14 27  1  0
 15 27  1  0
 15 16  1  0
 17 18  1  0
 19 20  1  0
 21 22  1  0
 21 16  1  0
 23 24  1  0
  6  7  2  0
  8  2  2  0
  9  4  2  0
 11 26  2  0
 16 17  2  0
 18 19  2  0
 20 21  2  0
 22 23  2  0
 24 15  2  0
M  END
> <Name>
CSC098014792

> <rmsd>
0.416529715

$$$$
CSC064531303 MCULE-6577566090
  SciTegic06052412183D

 29 32  0  0  0  0            999 V2000
   93.0583   -2.1807   16.2294 O   0  0
   96.9035   -3.5383   26.3906 O   0  0
   97.7980   -2.3365   21.2530 O   0  0
   92.2270   -3.0173   16.6718 C   0  0
   93.5523   -3.5196   18.8079 C   0  0
   93.5833   -4.2567   19.9958 C   0  0
   94.6574   -4.1276   20.8808 C   0  0
   95.7168   -3.2580   20.5880 C   0  0
   96.8480   -3.1221   21.5219 C   0  0
   97.9410   -3.7703   23.7174 C   0  0
   97.8396   -2.4375   24.4679 C   0  0
   96.6889   -2.4922   25.4756 C   0  0
   96.7186   -4.7381   25.6806 C   0  0
   97.8726   -4.9447   24.6961 C   0  0
   95.6863   -2.5192   19.3971 C   0  0
   94.6118   -2.6492   18.5131 C   0  0
   91.0212   -3.3490   15.8609 C   0  0
   91.2807   -4.5489   15.0030 C   0  0
   91.0004   -5.8571   15.4494 C   0  0
   91.2886   -6.9583   14.6057 C   0  0
   91.0162   -8.2604   15.0348 C   0  0
   90.4583   -8.4800   16.2969 C   0  0
   90.1699   -7.3993   17.1346 C   0  0
   90.4386   -6.0941   16.7137 C   0  0
   91.8466   -6.7461   13.3433 C   0  0
   92.1236   -5.4482   12.9093 C   0  0
   91.8438   -4.3570   13.7356 C   0  0
   92.4346   -3.6818   17.9250 N   0  0
   96.8713   -3.8838   22.7334 N   0  0
  4 28  1  0
  6  7  1  0
  8  9  1  0
  8 15  1  0
  9 29  1  0
 10 29  1  0
 10 11  1  0
 11 12  1  0
 12  2  1  0
 13  2  1  0
 13 14  1  0
 14 10  1  0
 16  5  1  0
 17  4  1  0
 17 18  1  0
 18 19  1  0
 19 20  1  0
 20 25  1  0
 21 22  1  0
 23 24  1  0
 26 27  1  0
 28  5  1  0
  4  1  2  0
  5  6  2  0
  7  8  2  0
  9  3  2  0
 15 16  2  0
 20 21  2  0
 22 23  2  0
 24 19  2  0
 25 26  2  0
 27 18  2  0
M  END
> <Name>
CSC064531303 MCULE-6577566090

> <rmsd>
0.411094069

$$$$
CSC028340431 MCULE-1234624901 MolPort-005-844-807 PubChem-4965641 ZINC000012549244 ZINC12549244
  SciTegic06052412183D

 37 41  0  0  0  0            999 V2000
   96.1559   -0.2366   28.1185 C   0  0
   96.6839   -1.3207   27.2492 C   0  0
   97.3289   -1.1356   26.0415 C   0  0
   97.5965   -2.4411   25.6759 C   0  0
   98.5532   -4.1590   24.0712 C   0  0
   99.2342   -4.4086   22.7699 C   0  0
   97.5042   -3.7658   21.1216 C   0  0
   96.4928   -4.1785   20.1354 C   0  0
   95.7112   -3.2222   19.4733 C   0  0
   94.7521   -3.6194   18.5381 C   0  0
   94.5596   -4.9790   18.2505 C   0  0
   95.3435   -5.9341   18.9153 C   0  0
   96.3024   -5.5365   19.8505 C   0  0
   92.6476   -6.4562   17.5859 C   0  0
   91.6510   -6.8771   16.5791 C   0  0
   90.7646   -7.9167   16.8704 C   0  0
   89.8146   -8.3207   15.9368 C   0  0
   89.7185   -7.7026   14.6825 C   0  0
   90.6033   -6.6364   14.3768 C   0  0
   90.5287   -5.9556   13.1531 C   0  0
   91.3975   -4.9063   12.8596 C   0  0
   92.3577   -4.5155   13.7898 C   0  0
   92.4563   -5.1647   15.0261 C   0  0
   93.4831   -4.7401   15.9999 C   0  0
   91.5763   -6.2262   15.3316 C   0  0
   98.2690   -2.8139   24.4694 N   0  0
   93.5701   -5.3892   17.2849 N   0  0
   88.7174   -8.1760   13.7568 N   0  3
   97.1440   -3.3141   26.5956 N   0  0
   98.2123   -5.1355   24.7901 O   0  0
   98.2781   -4.7353   21.7682 O   0  0
   97.6740   -2.5414   21.3772 O   0  0
   92.6689   -7.0185   18.7158 O   0  0
   94.2967   -3.8260   15.6902 O   0  0
   88.8062   -7.9203   12.4077 O   0  5
   87.7993   -8.9200   14.1607 O   0  0
   96.5987   -2.5983   27.5313 O   0  0
  1  2  1  0
  2 37  1  0
  3  4  1  0
  4 26  1  0
  6  5  1  0
  6 31  1  0
  7 31  1  0
  7  8  1  0
  9 10  1  0
 11 12  1  0
 11 27  1  0
 13  8  1  0
 14 15  1  0
 16 17  1  0
 18 19  1  0
 18 28  1  0
 20 21  1  0
 22 23  1  0
 23 24  1  0
 24 27  1  0
 25 15  1  0
 25 19  1  0
 26  5  1  0
 27 14  1  0
 28 35  1  0
 29 37  1  0
  2  3  2  0
  4 29  2  0
  5 30  2  0
  7 32  2  0
  8  9  2  0
 10 11  2  0
 12 13  2  0
 14 33  2  0
 15 16  2  0
 17 18  2  0
 19 20  2  0
 21 22  2  0
 23 25  2  0
 24 34  2  0
 28 36  2  0
M  CHG  2  28   1  35  -1
M  END
> <Name>
CSC028340431 MCULE-1234624901 MolPort-005-844-807 PubChem-4965641 ZINC000012549244 ZINC12549244

> <rmsd>
0.413601726

$$$$
CSC027448779 MCULE-5020127659 MolPort-005-730-163 PubChem-42952067
  SciTegic06052412183D

 37 42  0  0  0  0            999 V2000
   96.2185   -4.5050   27.7883 C   0  0
   96.9486   -3.5190   25.6405 C   0  0
   97.7651   -2.5975   24.9772 C   0  0
   97.7267   -2.4949   23.5837 C   0  0
   96.8693   -3.3140   22.8370 C   0  0
   96.8301   -3.2059   21.3704 C   0  0
   97.2155   -2.6094   19.4012 C   0  0
   97.6756   -2.0143   18.2334 C   0  0
   97.1147   -2.4711   17.0112 C   0  0
   95.7388   -4.0137   18.2035 C   0  0
   95.5815   -3.9529   15.7593 C   0  0
   96.2718   -5.2357   15.3156 C   0  0
   95.4276   -5.9393   14.2709 C   0  0
   92.9631   -6.0651   14.5051 C   0  0
   91.8481   -6.5888   15.1822 C   0  0
   90.5430   -6.1836   14.8096 C   0  0
   89.4317   -6.7007   15.4812 C   0  0
   89.6064   -7.6178   16.5213 C   0  0
   90.8922   -8.0207   16.8939 C   0  0
   92.0092   -7.5086   16.2276 C   0  0
   90.3651   -5.2661   13.7723 C   0  0
   91.4735   -4.7465   13.1010 C   0  0
   92.7632   -5.1425   13.4642 C   0  0
   97.5547   -1.8829   15.8122 C   0  0
   98.5249   -0.8763   15.8268 C   0  0
   99.0694   -0.4405   17.0379 C   0  0
   98.6463   -1.0071   18.2423 C   0  0
   96.0505   -4.2376   23.5005 C   0  0
   96.0890   -4.3404   24.8937 C   0  0
   97.0105   -3.5972   27.0345 O   0  0
   94.8594   -4.9191   18.2290 O   0  0
   94.2529   -6.4642   14.8772 O   0  0
   97.5220   -4.9362   14.7755 O   0  0
   96.0218   -3.9615   20.5871 N   0  0
   96.2868   -3.5637   19.3586 N   0  0
   96.1575   -3.4664   17.0151 N   0  0
   97.6015   -2.3374   20.6622 N   0  0
  1 30  1  0
  2 30  1  0
  3  4  1  0
  5  6  1  0
  5 28  1  0
  6 37  1  0
  7  8  1  0
  9 36  1  0
  9 24  1  0
 10 35  1  0
 11 36  1  0
 11 12  1  0
 12 13  1  0
 12 33  1  0
 13 32  1  0
 14 32  1  0
 14 15  1  0
 15 16  1  0
 16 21  1  0
 17 18  1  0
 19 20  1  0
 22 23  1  0
 25 26  1  0
 27  8  1  0
 29  2  1  0
 35 34  1  0
 35  7  1  0
 36 10  1  0
  2  3  2  0
  4  5  2  0
  6 34  2  0
  7 37  2  0
  8  9  2  0
 10 31  2  0
 16 17  2  0
 18 19  2  0
 20 15  2  0
 21 22  2  0
 23 14  2  0
 24 25  2  0
 26 27  2  0
 28 29  2  0
M  END
> <Name>
CSC027448779 MCULE-5020127659 MolPort-005-730-163 PubChem-42952067

> <rmsd>
0.345406562

$$$$
CSC027877777 MCULE-9775406789 MolPort-009-185-085 PubChem-135922343 ZINC000031841104
  SciTegic06052412183D

 30 34  0  0  0  0            999 V2000
   98.6860   -2.5102   28.0752 O   0  5
   92.2902   -4.7702   18.0949 O   0  0
   96.8158   -2.7474   20.0092 O   0  0
   97.0361   -3.6568   27.0311 O   0  0
   98.0050   -2.8748   26.9364 N   0  3
   96.3125   -3.4605   22.0279 N   0  0
   90.0542   -7.8297   15.3004 N   0  0
   91.1275   -6.2478   19.2285 N   0  0
   91.7111   -5.4433   20.1034 N   0  0
   97.6836   -2.1831   20.7921 N   0  0
   98.4052   -2.3620   25.6585 C   0  0
   97.7144   -2.7304   24.4940 C   0  0
   98.1031   -2.2308   23.2436 C   0  0
   97.3722   -2.6229   22.0285 C   0  0
   96.0111   -3.4992   20.7168 C   0  0
   94.8787   -4.2773   20.1483 C   0  0
   92.4144   -4.5525   19.3809 C   0  0
   91.4994   -5.8128   18.0089 C   0  0
   91.0720   -6.4305   16.7480 C   0  0
   91.4101   -6.0476   15.4727 C   0  0
   90.7763   -6.9163   14.6266 C   0  0
   90.9046   -6.8136   13.2428 C   0  0
   91.7131   -5.7799   12.7360 C   0  0
   92.3660   -4.8849   13.6112 C   0  0
   92.2184   -5.0126   15.0038 C   0  0
   90.2341   -7.5333   16.6126 C   0  0
   99.1935   -1.3549   23.1621 C   0  0
   99.8867   -0.9830   24.3165 C   0  0
   99.4940   -1.4848   25.5598 C   0  0
   93.3924   -3.2370   20.0903 S   0  0
  3 10  1  0
  5  1  1  0
  5 11  1  0
  7 26  1  0
  8  9  1  0
 12 13  1  0
 13 14  1  0
 14  6  1  0
 15  3  1  0
 16 15  1  0
 16 30  1  0
 17 30  1  0
 17  2  1  0
 18  2  1  0
 18 19  1  0
 19 20  1  0
 20 21  1  0
 21  7  1  0
 22 23  1  0
 24 25  1  0
 27 28  1  0
 29 11  1  0
  5  4  2  0
 11 12  2  0
 13 27  2  0
 14 10  2  0
 15  6  2  0
 17  9  2  0
 18  8  2  0
 21 22  2  0
 23 24  2  0
 25 20  2  0
 26 19  2  0
 28 29  2  0
M  CHG  2   1  -1   5   1
M  END
> <Name>
CSC027877777 MCULE-9775406789 MolPort-009-185-085 PubChem-135922343 ZINC000031841104

> <rmsd>
0.393539071

$$$$
CSC094576530
  SciTegic06052412183D

 28 30  0  0  0  0            999 V2000
   96.6485   -4.1906   27.5447 C   0  0
   96.5197   -3.8690   25.3674 C   0  0
   97.0909   -3.1792   24.1466 C   0  0
   96.6659   -3.1038   21.6597 C   0  0
   95.8698   -3.5629   20.4933 C   0  0
   94.8260   -4.4711   20.7301 C   0  0
   94.0330   -4.9481   19.6857 C   0  0
   94.2654   -4.5281   18.3764 C   0  0
   93.5146   -4.7375   15.9282 C   0  0
   92.5574   -5.3349   14.9603 C   0  0
   91.5102   -6.2129   15.3386 C   0  0
   90.3153   -7.4095   17.0190 C   0  0
   89.4453   -7.9397   16.0653 C   0  0
   89.6123   -7.5984   14.7235 C   0  0
   90.6421   -6.7350   14.3490 C   0  0
   90.8108   -6.3919   13.0081 C   0  0
   91.8396   -5.5288   12.6349 C   0  0
   92.7014   -5.0075   13.6015 C   0  0
   95.3022   -3.6223   18.1240 C   0  0
   96.1048   -3.1359   19.1609 C   0  0
   97.2258   -3.4694   26.5006 O   0  0
   97.6172   -2.2892   21.5184 O   0  0
   94.4133   -3.9599   15.5043 O   0  0
   90.1601   -7.7409   18.3579 O   0  0
   96.3504   -3.5930   22.9668 N   0  0
   93.4279   -5.0373   17.3298 N   0  0
   91.3150   -6.5688   16.6398 N   0  0
   97.3730   -2.0043   18.7089 Cl  0  0
  1 21  1  0
  2 21  1  0
  2  3  1  0
  3 25  1  0
  4  5  1  0
  6  7  1  0
  8 26  1  0
  8 19  1  0
  9 10  1  0
 10 11  1  0
 12 27  1  0
 12 24  1  0
 13 14  1  0
 15 16  1  0
 15 11  1  0
 17 18  1  0
 20 28  1  0
 20  5  1  0
 25  4  1  0
 26  9  1  0
  4 22  2  0
  5  6  2  0
  7  8  2  0
  9 23  2  0
 11 27  2  0
 12 13  2  0
 14 15  2  0
 16 17  2  0
 18 10  2  0
 19 20  2  0
M  END
> <Name>
CSC094576530

> <rmsd>
0.395691931

$$$$
CSC026932633 MCULE-8362327486 MolPort-004-481-651 PubChem-16261320 ZINC000009222697 ZINC09222697
  SciTegic06052412183D

 32 35  0  0  0  0            999 V2000
   90.2768   -2.6433   19.0408 O   0  0
   91.2477   -4.4737   18.0268 O   0  0
   97.5231   -2.4457   21.1158 O   0  0
   96.3216   -0.8742   22.5486 O   0  0
   91.2878   -3.3866   18.9024 C   0  0
   90.0914   -4.7817   17.2625 C   0  0
   90.3621   -5.9773   16.4093 C   0  0
   90.3102   -8.3474   16.2056 C   0  0
   89.9827   -9.5858   16.7656 C   0  0
   90.2285  -10.7642   16.0563 C   0  0
   90.8033  -10.7097   14.7841 C   0  0
   91.1344   -9.4762   14.2168 C   0  0
   90.8924   -8.2834   14.9191 C   0  0
   91.2152   -7.0239   14.3803 C   0  0
   91.7990   -6.9010   13.1078 C   0  0
   92.1159   -5.6432   12.5903 C   0  0
   91.8544   -4.4933   13.3371 C   0  0
   91.2748   -4.5976   14.6031 C   0  0
   90.9499   -5.8550   15.1362 C   0  0
   92.5161   -3.1105   19.6644 C   0  0
   92.5824   -2.0175   20.5407 C   0  0
   93.7527   -1.7599   21.2600 C   0  0
   94.8671   -2.5918   21.1078 C   0  0
   94.8045   -3.6855   20.2387 C   0  0
   93.6344   -3.9428   19.5190 C   0  0
   95.3292   -3.1689   24.2237 C   0  0
   95.3930   -4.1148   25.4092 C   0  0
   96.4601   -3.7100   26.3290 C   0  0
   90.0688   -7.2086   16.9046 N   0  0
   96.4607   -3.3989   23.3385 N   0  0
   97.3024   -3.3907   27.0555 N   0  0
   96.3348   -2.2826   22.0210 S   0  0
  5  2  1  0
  5 20  1  0
  6  2  1  0
  6  7  1  0
  8 29  1  0
  9 10  1  0
 11 12  1  0
 13 14  1  0
 13  8  1  0
 15 16  1  0
 17 18  1  0
 19  7  1  0
 19 14  1  0
 21 22  1  0
 23 24  1  0
 25 20  1  0
 26 30  1  0
 26 27  1  0
 27 28  1  0
 32 23  1  0
 32 30  1  0
  5  1  2  0
  7 29  2  0
  8  9  2  0
 10 11  2  0
 12 13  2  0
 14 15  2  0
 16 17  2  0
 18 19  2  0
 20 21  2  0
 22 23  2  0
 24 25  2  0
 32  3  2  0
 32  4  2  0
 28 31  3  0
M  END
> <Name>
CSC026932633 MCULE-8362327486 MolPort-004-481-651 PubChem-16261320 ZINC000009222697 ZINC09222697

> <rmsd>
0.347518206

$$$$
CSC084910330
  SciTegic06052412183D

 28 30  0  0  0  0            999 V2000
   97.1096   -3.6021   26.4191 O   0  0
   98.8205   -2.1548   25.9364 O   0  0
   97.5107   -2.2522   21.2504 O   0  0
   93.7047   -8.6539   19.8491 O   0  0
   92.0276   -6.8785   19.5836 O   0  0
   97.7580   -2.7184   25.5668 C   0  0
   97.2176   -2.4671   24.2041 C   0  0
   97.7266   -3.5282   23.2456 C   0  0
   97.1768   -3.2954   21.8753 C   0  0
   96.2680   -4.2745   21.2475 C   0  0
   95.8898   -5.4407   21.9302 C   0  0
   95.0280   -6.3636   21.3314 C   0  0
   94.5368   -6.1306   20.0429 C   0  0
   94.9058   -4.9687   19.3583 C   0  0
   95.7677   -4.0458   19.9570 C   0  0
   92.8286   -8.2757   16.9843 C   0  0
   91.6421   -7.5967   16.3764 C   0  0
   91.7677   -6.7255   15.2773 C   0  0
   93.1251   -5.6246   13.6638 C   0  0
   92.0055   -5.0000   13.1089 C   0  0
   90.7434   -5.2475   13.6512 C   0  0
   90.6137   -6.1123   14.7381 C   0  0
   89.3569   -6.3737   15.2875 C   0  0
   89.2386   -7.2455   16.3727 C   0  0
   90.3753   -7.8547   16.9120 C   0  0
   93.4465   -7.2807   19.2929 S   0  0
   93.7234   -7.2950   17.5821 N   0  0
   92.9857   -6.4655   14.7241 N   0  0
  6  1  1  0
  7  6  1  0
  7  8  1  0
  8  9  1  0
  9 10  1  0
 11 12  1  0
 13 14  1  0
 15 10  1  0
 16 27  1  0
 16 17  1  0
 17 18  1  0
 19 28  1  0
 20 21  1  0
 22 23  1  0
 22 18  1  0
 24 25  1  0
 26 13  1  0
 26 27  1  0
  6  2  2  0
  9  3  2  0
 10 11  2  0
 12 13  2  0
 14 15  2  0
 18 28  2  0
 19 20  2  0
 21 22  2  0
 23 24  2  0
 25 17  2  0
 26  4  2  0
 26  5  2  0
M  END
> <Name>
CSC084910330

> <rmsd>
0.377447426

$$$$
CSC027285933 MCULE-1668939311 MolPort-009-434-500 PubChem-24249646 ZINC24923490
  SciTegic06052412183D

 27 30  0  0  0  0            999 V2000
   94.7361   -5.2820   18.7515 O   0  0
   97.7721   -2.0448   20.9112 O   0  0
   97.0930   -3.6585   26.9608 O   0  0
   98.4097   -2.0116   26.1021 O   0  0
   95.4626   -4.3679   18.2749 C   0  0
   94.6982   -4.8979   15.9221 C   0  0
   93.2419   -4.4755   16.0128 C   0  0
   92.4074   -5.2971   15.0898 C   0  0
   92.4726   -5.3150   13.6998 C   0  0
   90.9097   -6.6757   14.2712 C   0  0
   89.8686   -7.6019   14.2629 C   0  0
   89.3378   -7.9996   15.5038 C   0  0
   89.8520   -7.4699   16.7076 C   0  0
   90.9035   -6.5362   16.6856 C   0  0
   91.4053   -6.1650   15.4394 C   0  0
   97.0453   -2.9554   21.3944 C   0  0
   97.0180   -3.1854   22.8493 C   0  0
   96.2020   -4.2077   23.3926 C   0  0
   96.1646   -4.4400   24.7793 C   0  0
   96.9567   -3.6298   25.5873 C   0  0
   98.0213   -2.6310   27.3364 C   0  0
   97.7413   -2.6484   25.0756 C   0  0
   97.8044   -2.3889   23.7092 C   0  0
   95.4990   -4.1330   16.8661 N   0  0
   91.5459   -6.1709   13.1981 N   0  0
   96.2588   -3.5614   19.1398 N   0  0
   96.2486   -3.7628   20.5260 N   0  0
  5 24  1  0
  5 26  1  0
  6 24  1  0
  6  7  1  0
  7  8  1  0
  9 25  1  0
 11 12  1  0
 13 14  1  0
 15  8  1  0
 15 10  1  0
 16 17  1  0
 18 19  1  0
 20  3  1  0
 21  3  1  0
 21  4  1  0
 22  4  1  0
 22 20  1  0
 23 17  1  0
 25 10  1  0
 26 27  1  0
 27 16  1  0
  5  1  2  0
  8  9  2  0
 10 11  2  0
 12 13  2  0
 14 15  2  0
 16  2  2  0
 17 18  2  0
 19 20  2  0
 22 23  2  0
M  END
> <Name>
CSC027285933 MCULE-1668939311 MolPort-009-434-500 PubChem-24249646 ZINC24923490

> <rmsd>
0.376587689

$$$$
CSC026425453 MCULE-5443889764 MolPort-005-688-028 PubChem-24244570 ZINC000015093695 ZINC15093695
  SciTegic06052412183D

 33 36  0  0  0  0            999 V2000
   90.4479   -5.7707   12.0061 C   0  0
   92.4637   -5.4684   13.4441 C   0  0
   92.8312   -5.7312   14.7642 C   0  0
   94.1652   -5.4799   15.3430 C   0  0
   93.3355   -4.4912   17.5086 C   0  0
   93.9467   -3.1945   18.0338 C   0  0
   95.6836   -2.2162   19.2594 C   0  0
   96.3169   -2.3758   20.5987 C   0  0
   95.9627   -3.0055   23.0585 C   0  0
   95.0298   -3.4007   24.0227 C   0  0
   95.4280   -3.6244   25.3439 C   0  0
   96.7648   -3.4562   25.7177 C   0  0
   98.4549   -3.5520   27.5538 C   0  0
   97.7033   -3.0602   24.7517 C   0  0
   97.3042   -2.8369   23.4315 C   0  0
   96.1529   -4.0683   17.8957 C   0  0
   95.6538   -5.4092   17.3622 C   0  0
   91.7349   -6.3302   15.3631 C   0  0
   91.5560   -6.8661   16.6386 C   0  0
   90.3117   -7.4502   16.9341 C   0  0
   89.2924   -7.4987   15.9593 C   0  0
   89.5068   -6.9692   14.6745 C   0  0
   90.7500   -6.3915   14.4119 C   0  0
   91.1858   -5.8677   13.2539 N   0  0
   94.3454   -5.2176   16.7433 N   0  0
   95.1567   -3.4911   18.8006 N   0  0
   95.5149   -2.7880   21.7138 N   0  0
   95.1678   -5.4842   14.5782 O   0  0
   97.5464   -2.1375   20.7301 O   0  0
   97.1278   -3.6891   27.0506 O   0  0
   99.3050   -4.4212   26.8936 F   0  0
   98.8948   -2.2514   27.3845 F   0  0
   98.4601   -3.8559   28.9013 F   0  0
  1 24  1  0
  3  4  1  0
  3 18  1  0
  4 25  1  0
  5 25  1  0
  5  6  1  0
  6 26  1  0
  7 26  1  0
  7  8  1  0
  8 27  1  0
 10 11  1  0
 12 30  1  0
 12 14  1  0
 13 30  1  0
 13 31  1  0
 13 32  1  0
 13 33  1  0
 15  9  1  0
 16 26  1  0
 16 17  1  0
 17 25  1  0
 19 20  1  0
 21 22  1  0
 23 24  1  0
 23 18  1  0
 24  2  1  0
 27  9  1  0
  2  3  2  0
  4 28  2  0
  8 29  2  0
  9 10  2  0
 11 12  2  0
 14 15  2  0
 18 19  2  0
 20 21  2  0
 22 23  2  0
M  END
> <Name>
CSC026425453 MCULE-5443889764 MolPort-005-688-028 PubChem-24244570 ZINC000015093695 ZINC15093695

> <rmsd>
0.40141356

$$$$
CSC076480928
  SciTegic06052412183D

 27 29  0  0  0  0            999 V2000
   97.9809   -2.0776   19.4868 C   0  0
   96.1033   -2.7226   20.9659 C   0  0
   95.1888   -2.7260   19.8993 C   0  0
   93.8438   -3.0373   20.1187 C   0  0
   92.8834   -3.0538   18.9780 C   0  0
   92.6195   -5.5440   18.5846 C   0  0
   92.8722   -6.7263   17.7129 C   0  0
   91.7564   -6.9032   16.7329 C   0  0
   91.7801   -6.2735   15.4749 C   0  0
   92.8748   -4.8803   13.8882 C   0  0
   91.8187   -5.0326   12.9863 C   0  0
   90.7237   -5.8226   13.3401 C   0  0
   90.6949   -6.4491   14.5862 C   0  0
   89.6054   -7.2410   14.9551 C   0  0
   89.5865   -7.8609   16.2071 C   0  0
   90.6557   -7.6910   17.0918 C   0  0
   93.4040   -3.3514   21.4062 C   0  0
   94.3061   -3.3509   22.4720 C   0  0
   95.6592   -3.0375   22.2601 C   0  0
   96.2101   -3.3463   24.6539 C   0  0
   97.4295   -3.2513   25.5460 C   0  0
   97.4522   -2.4118   20.7629 O   0  0
   91.9800   -5.6875   19.6607 O   0  0
   96.5761   -3.0338   23.3169 O   0  0
   97.0715   -3.5628   26.8565 O   0  0
   93.0717   -4.2524   18.1718 N   0  0
   92.8355   -5.4969   15.1003 N   0  0
  1 22  1  0
  2 22  1  0
  3  4  1  0
  5  4  1  0
  5 26  1  0
  7  6  1  0
  7  8  1  0
  8  9  1  0
 10 27  1  0
 11 12  1  0
 13 14  1  0
 13  9  1  0
 15 16  1  0
 17 18  1  0
 19 24  1  0
 19  2  1  0
 20 24  1  0
 20 21  1  0
 21 25  1  0
 26  6  1  0
  2  3  2  0
  4 17  2  0
  6 23  2  0
  9 27  2  0
 10 11  2  0
 12 13  2  0
 14 15  2  0
 16  8  2  0
 18 19  2  0
M  END
> <Name>
CSC076480928

> <rmsd>
0.329072446

$$$$
CSC028105321 MCULE-3855234238 MolPort-023-225-767 PubChem-4602626
  SciTegic06052412183D

 45 50  0  0  0  0            999 V2000
  100.1074   -3.0834   21.5121 N   0  0
  102.0701   -4.3137   21.4572 N   0  0
   98.9182   -2.9903   20.8519 C   0  0
   98.7413   -3.9234   19.8267 C   0  0
  100.8765   -4.0740   21.0179 C   0  0
  102.6636   -3.5051   22.4851 C   0  0
  104.0894   -3.7890   22.8222 C   0  0
  101.9638   -2.4863   23.0521 C   0  0
  102.5500   -1.5457   24.0458 C   0  0
  104.3358   -0.9423   25.6321 C   0  0
  105.6247   -1.5368   26.1594 C   0  0
  100.4971   -2.2902   22.6849 C   0  0
   99.6112   -2.6180   23.8535 C   0  0
   99.5285   -3.9219   24.3529 C   0  0
   98.6989   -4.2024   25.4381 C   0  0
   97.9390   -3.1877   26.0447 C   0  0
   98.0239   -1.8650   25.5403 C   0  0
   96.4385   -0.8514   27.1910 C   0  0
   98.8597   -1.6026   24.4486 C   0  0
   96.9707   -4.7967   27.6635 C   0  0
   97.6399   -4.0073   19.0669 C   0  0
   97.3601   -4.9516   17.9670 C   0  0
   98.2898   -5.8994   17.5151 C   0  0
   97.9685   -6.7635   16.4657 C   0  0
   96.7131   -6.6862   15.8586 C   0  0
   95.7733   -5.7413   16.2987 C   0  0
   96.1057   -4.8807   17.3500 C   0  0
   94.0915   -6.4631   14.6348 C   0  0
   92.6861   -6.1247   14.2593 C   0  0
   92.4720   -5.1423   13.2865 C   0  0
   91.1742   -4.7731   12.9242 C   0  0
   90.0752   -5.3789   13.5367 C   0  0
   90.2698   -6.3554   14.5160 C   0  0
   89.1664   -6.9542   15.1288 C   0  0
   89.3547   -7.9303   16.1116 C   0  0
   90.6462   -8.3110   16.4852 C   0  0
   91.7556   -7.7176   15.8772 C   0  0
   91.5827   -6.7360   14.8887 C   0  0
   98.0466   -2.1304   21.1567 O   0  0
  103.7613   -1.8268   24.6824 O   0  0
  101.9303   -0.4830   24.3287 O   0  0
   97.3111   -0.7796   26.0722 O   0  0
   97.1082   -3.4861   27.1306 O   0  0
   94.5091   -5.6369   15.7135 O   0  0
  100.1317   -4.8925   19.7563 S   0  0
  1  3  1  0
  3  4  1  0
  4 45  1  0
  5 45  1  0
  5  1  1  0
  6  2  1  0
  7  6  1  0
  8  9  1  0
  9 40  1  0
 10 40  1  0
 10 11  1  0
 12  8  1  0
 12 13  1  0
 12  1  1  0
 14 15  1  0
 16 17  1  0
 16 43  1  0
 17 42  1  0
 18 42  1  0
 19 13  1  0
 20 43  1  0
 21 22  1  0
 23 24  1  0
 25 26  1  0
 26 44  1  0
 27 22  1  0
 28 44  1  0
 28 29  1  0
 30 31  1  0
 32 33  1  0
 34 35  1  0
 36 37  1  0
 38 29  1  0
 38 33  1  0
  3 39  2  0
  4 21  2  0
  5  2  2  0
  6  8  2  0
  9 41  2  0
 13 14  2  0
 15 16  2  0
 17 19  2  0
 22 23  2  0
 24 25  2  0
 26 27  2  0
 29 30  2  0
 31 32  2  0
 33 34  2  0
 35 36  2  0
 37 38  2  0
M  END
> <Name>
CSC028105321 MCULE-3855234238 MolPort-023-225-767 PubChem-4602626

> <rmsd>
0.399718463

$$$$
CSC026931219 MCULE-5225342038 MolPort-044-258-693 PubChem-72070306
  SciTegic06052412183D

 32 35  0  0  0  0            999 V2000
   97.8679   -1.5161   20.3581 C   0  0
   96.8132   -3.5717   21.2479 C   0  0
   96.4841   -4.3543   22.3653 C   0  0
   95.7967   -5.5656   22.1850 C   0  0
   95.4403   -5.9942   20.9048 C   0  0
   95.7644   -5.2208   19.7881 C   0  0
   96.4507   -4.0106   19.9639 C   0  0
   95.3736   -5.7017   18.4561 C   0  0
   95.6421   -5.0282   17.3409 C   0  0
   95.2378   -5.5338   16.0284 C   0  0
   94.0857   -7.2594   14.6791 C   0  0
   92.8293   -6.5501   14.2778 C   0  0
   91.8232   -4.8601   12.9383 C   0  0
   91.9680   -3.8629   11.9694 C   0  0
   90.8574   -3.1273   11.5476 C   0  0
   89.5974   -3.3855   12.0932 C   0  0
   89.4436   -4.3800   13.0627 C   0  0
   90.5521   -5.1272   13.4958 C   0  0
   90.4354   -6.1348   14.4715 C   0  0
   89.1972   -6.4399   15.0620 C   0  0
   89.1000   -7.4413   16.0305 C   0  0
   90.2374   -8.1496   16.4211 C   0  0
   91.4752   -7.8590   15.8441 C   0  0
   91.5887   -6.8553   14.8693 C   0  0
   96.5537   -4.6419   24.8234 C   0  0
   97.0641   -3.9154   25.9862 C   0  0
   97.4979   -2.3661   21.4353 O   0  0
   95.5087   -4.8568   15.0007 O   0  0
   94.5635   -6.7547   15.9209 O   0  0
   96.8485   -3.9106   23.6412 O   0  0
   92.9094   -5.5679   13.3416 N   0  0
   97.4678   -3.3409   26.9059 N   0  0
  1 27  1  0
  2 27  1  0
  3  4  1  0
  3 30  1  0
  5  6  1  0
  6  8  1  0
  7  2  1  0
  9 10  1  0
 10 29  1  0
 11 29  1  0
 11 12  1  0
 13 31  1  0
 14 15  1  0
 16 17  1  0
 18 19  1  0
 18 13  1  0
 20 21  1  0
 22 23  1  0
 24 12  1  0
 24 19  1  0
 25 30  1  0
 25 26  1  0
  2  3  2  0
  4  5  2  0
  6  7  2  0
  8  9  2  0
 10 28  2  0
 12 31  2  0
 13 14  2  0
 15 16  2  0
 17 18  2  0
 19 20  2  0
 21 22  2  0
 23 24  2  0
 26 32  3  0
M  END
> <Name>
CSC026931219 MCULE-5225342038 MolPort-044-258-693 PubChem-72070306

> <rmsd>
0.410993129

$$$$
CSC090955770
  SciTegic06052412183D

 28 31  0  0  0  0            999 V2000
   97.5044   -2.3108   21.2035 O   0  0
   95.7590   -1.2583   22.5567 O   0  0
   97.0625   -3.6030   26.4342 O   0  0
   96.3524   -2.5734   22.1316 S   0  0
   96.9212   -3.4251   23.5277 N   0  0
   92.3358   -5.6616   17.8089 N   0  0
   92.7231   -4.9916   13.6428 N   0  0
   89.8373   -7.5740   15.0534 N   0  0
   90.5201   -7.1712   17.2732 N   0  0
   95.7842   -3.6389   24.4086 C   0  0
   96.2250   -4.4027   25.6425 C   0  0
   95.0166   -4.7830   26.4639 C   0  0
   95.4646   -4.5771   27.8795 C   0  0
   96.8820   -4.0713   27.7438 C   0  0
   95.1436   -3.5318   21.2927 C   0  0
   95.4483   -4.8362   20.8882 C   0  0
   94.4890   -5.6065   20.2243 C   0  0
   93.2203   -5.0756   19.9678 C   0  0
   92.2076   -5.8864   19.2398 C   0  0
   91.4883   -6.3094   16.8561 C   0  0
   91.6439   -6.0649   15.4857 C   0  0
   92.6164   -5.1923   14.9842 C   0  0
   91.9027   -5.6212   12.7578 C   0  0
   90.9175   -6.5010   13.2139 C   0  0
   90.7869   -6.7242   14.5852 C   0  0
   89.7019   -7.7983   16.3868 C   0  0
   92.9170   -3.7688   20.3645 C   0  0
   93.8766   -2.9989   21.0283 C   0  0
  4  5  1  0
  4 15  1  0
  6 20  1  0
 10  5  1  0
 10 11  1  0
 11 12  1  0
 11  3  1  0
 12 13  1  0
 13 14  1  0
 14  3  1  0
 16 17  1  0
 18 27  1  0
 19 18  1  0
 19  6  1  0
 20 21  1  0
 22  7  1  0
 23 24  1  0
 25  8  1  0
 25 21  1  0
 26  9  1  0
 28 15  1  0
  4  1  2  0
  4  2  2  0
 15 16  2  0
 17 18  2  0
 20  9  2  0
 21 22  2  0
 23  7  2  0
 24 25  2  0
 26  8  2  0
 27 28  2  0
M  END
> <Name>
CSC090955770

> <rmsd>
0.399267972

$$$$
CSC088274042
  SciTegic06052412183D

 29 31  0  0  0  0            999 V2000
   98.8816   -0.9981   19.8123 C   0  0
   97.5485   -1.1889   20.5048 C   0  0
   96.9114   -3.3700   21.4891 C   0  0
   95.9733   -3.6187   20.4739 C   0  0
   95.2174   -4.7976   20.4677 C   0  0
   95.4062   -5.7357   21.4900 C   0  0
   96.3364   -5.4967   22.5032 C   0  0
   97.0929   -4.3140   22.5110 C   0  0
   98.2428   -4.9223   24.6307 C   0  0
   97.1869   -4.7054   25.6594 C   0  0
   94.2371   -5.0473   19.3969 C   0  0
   93.1200   -4.2832   17.2569 C   0  0
   93.6863   -5.2987   16.2776 C   0  0
   92.6937   -5.5981   15.1985 C   0  0
   91.5262   -6.3553   15.4369 C   0  0
   91.2316   -6.8671   16.7104 C   0  0
   90.0690   -7.6134   16.9215 C   0  0
   89.1902   -7.8576   15.8630 C   0  0
   89.4711   -7.3587   14.5885 C   0  0
   90.6319   -6.6120   14.3679 C   0  0
   90.9107   -6.1248   13.0892 C   0  0
   92.0727   -5.3858   12.8596 C   0  0
   92.9593   -5.1273   13.9079 C   0  0
   97.6710   -2.1949   21.5015 O   0  0
   98.0327   -4.0587   23.5179 O   0  0
   97.1680   -3.5308   26.3993 O   0  0
   96.3018   -5.5797   25.8465 O   0  0
   93.5595   -6.1118   19.3970 O   0  0
   94.0498   -4.0809   18.3574 N   0  0
  1  2  1  0
  2 24  1  0
  3 24  1  0
  4  5  1  0
  5 11  1  0
  6  7  1  0
  8 25  1  0
  8  3  1  0
  9 25  1  0
  9 10  1  0
 10 26  1  0
 11 29  1  0
 12 29  1  0
 12 13  1  0
 13 14  1  0
 14 15  1  0
 16 17  1  0
 18 19  1  0
 20 21  1  0
 20 15  1  0
 22 23  1  0
  3  4  2  0
  5  6  2  0
  7  8  2  0
 10 27  2  0
 11 28  2  0
 15 16  2  0
 17 18  2  0
 19 20  2  0
 21 22  2  0
 23 14  2  0
M  END
> <Name>
CSC088274042

> <rmsd>
0.406932324

$$$$
CSC067808318
  SciTegic06052412183D

 28 30  0  0  0  0            999 V2000
   97.3116   -4.5022   27.5352 C   0  0
   96.5717   -2.3194   27.2162 C   0  0
   96.5408   -3.8373   25.4405 C   0  0
   97.0813   -3.1886   24.1808 C   0  0
   96.5795   -3.1780   21.7095 C   0  0
   95.7584   -3.6522   20.5817 C   0  0
   96.0251   -3.2160   19.2763 C   0  0
   95.2451   -3.6670   18.2082 C   0  0
   94.1870   -4.5604   18.4299 C   0  0
   93.4747   -4.7211   15.9662 C   0  0
   92.5404   -5.3091   14.9706 C   0  0
   91.4994   -6.2089   15.3130 C   0  0
   90.2955   -7.4584   16.9476 C   0  0
   89.4478   -7.9791   15.9690 C   0  0
   89.6310   -7.6064   14.6377 C   0  0
   90.6545   -6.7213   14.2985 C   0  0
   90.8398   -6.3471   12.9681 C   0  0
   91.8626   -5.4627   12.6303 C   0  0
   92.7018   -4.9510   13.6216 C   0  0
   93.9212   -4.9951   19.7321 C   0  0
   94.7005   -4.5450   20.8016 C   0  0
   97.3134   -3.4005   26.5907 N   0  0
   96.2999   -3.6282   23.0375 N   0  0
   93.3642   -5.0456   17.3605 N   0  0
   91.2893   -6.5963   16.6028 N   0  0
   97.5302   -2.3742   21.5041 O   0  0
   94.3734   -3.9278   15.5729 O   0  0
   90.1241   -7.8211   18.2762 O   0  0
  1 22  1  0
  2 22  1  0
  3 22  1  0
  3  4  1  0
  4 23  1  0
  5  6  1  0
  7  8  1  0
  9 24  1  0
  9 20  1  0
 10 11  1  0
 11 12  1  0
 13 25  1  0
 13 28  1  0
 14 15  1  0
 16 17  1  0
 16 12  1  0
 18 19  1  0
 21  6  1  0
 23  5  1  0
 24 10  1  0
  5 26  2  0
  6  7  2  0
  8  9  2  0
 10 27  2  0
 12 25  2  0
 13 14  2  0
 15 16  2  0
 17 18  2  0
 19 11  2  0
 20 21  2  0
M  END
> <Name>
CSC067808318

> <rmsd>
0.394352347

$$$$
CSC057167961 MCULE-2774469948 PubChem-121991806
  SciTegic06052412183D

 28 30  0  0  0  0            999 V2000
   97.6360   -5.6535   24.4252 C   0  0
   97.7729   -3.8333   22.9262 C   0  0
   97.0143   -3.2063   21.7680 C   0  0
   96.5952   -4.2849   20.7667 C   0  0
   96.5706   -2.4298   19.0823 C   0  0
   97.0134   -1.5357   20.2425 C   0  0
   94.7164   -4.1317   19.0992 C   0  0
   92.8346   -3.9306   17.4342 C   0  0
   92.4308   -3.0240   16.2878 C   0  0
   91.1380   -3.5182   15.6577 C   0  0
   92.1119   -4.8927   13.7993 C   0  0
   92.0846   -6.2196   13.3576 C   0  0
   91.2761   -6.8712   14.2689 C   0  0
   90.8947   -8.2097   14.3247 C   0  0
   90.0504   -8.6035   15.3789 C   0  0
   89.6139   -7.6639   16.3381 C   0  0
   90.0164   -6.3188   16.2550 C   0  0
   90.8535   -5.9615   15.1970 C   0  0
   96.2365   -3.7373   24.7812 C   0  0
   97.2008   -3.1063   25.7484 C   0  0
   96.8676   -4.6027   23.7727 N   0  0
   95.9518   -3.6347   19.6286 N   0  0
   94.0863   -3.4629   18.0038 N   0  0
   91.3638   -4.7545   14.9192 N   0  0
   97.8368   -2.2618   21.1247 O   0  0
   94.1841   -5.1607   19.5992 O   0  0
   97.1658   -3.4307   26.9634 O   0  0
   98.1059   -2.1446   25.3182 O   0  0
  1 21  1  0
  2 21  1  0
  2  3  1  0
  3  4  1  0
  3 25  1  0
  4 22  1  0
  5 22  1  0
  5  6  1  0
  6 25  1  0
  7 23  1  0
  8 23  1  0
  8  9  1  0
  9 10  1  0
 10 24  1  0
 12 13  1  0
 14 15  1  0
 16 17  1  0
 18 24  1  0
 18 13  1  0
 19 21  1  0
 19 20  1  0
 20 28  1  0
 22  7  1  0
 24 11  1  0
  7 26  2  0
 11 12  2  0
 13 14  2  0
 15 16  2  0
 17 18  2  0
 20 27  2  0
M  END
> <Name>
CSC057167961 MCULE-2774469948 PubChem-121991806

> <rmsd>
0.401846409

$$$$
CSC028061619 MCULE-9507879902 MolPort-044-407-285 PubChem-72035461
  SciTegic06052412183D

 32 35  0  0  0  0            999 V2000
   97.9275   -3.4959   28.1311 C   0  0
   97.8128   -3.1077   25.6838 C   0  0
   99.1672   -2.7377   25.6483 C   0  0
   99.7765   -2.3699   24.4514 C   0  0
   99.0392   -2.3668   23.2709 C   0  0
   97.6868   -2.7314   23.2759 C   0  0
   97.0584   -3.1057   24.4810 C   0  0
   94.9124   -3.8610   25.5404 C   0  0
   96.9186   -2.7249   22.0209 C   0  0
   95.3745   -2.7111   19.4904 C   0  0
   94.7770   -2.6482   18.1448 C   0  0
   93.4274   -2.9788   17.9511 C   0  0
   92.8615   -2.9203   16.6747 C   0  0
   93.6400   -2.5316   15.5802 C   0  0
   94.9861   -2.1993   15.7657 C   0  0
   95.5514   -2.2573   17.0428 C   0  0
   93.0341   -2.4848   14.2186 C   0  0
   92.4838   -5.0486   13.9965 C   0  0
   91.7383   -6.4975   15.3235 C   0  0
   91.5378   -7.4374   16.3311 C   0  0
   90.2669   -8.0362   16.4125 C   0  0
   89.2476   -7.6844   15.4992 C   0  0
   89.4872   -6.7294   14.4934 C   0  0
   90.7562   -6.1581   14.4432 C   0  0
   97.2203   -3.4741   26.8981 O   0  0
   95.6988   -3.4625   24.4268 O   0  0
   94.6657   -3.0635   20.4721 O   0  0
   97.4602   -2.3886   20.8926 N   0  0
   96.7598   -2.3706   19.6708 N   0  0
   92.8554   -5.8058   15.0614 N   0  0
   91.2037   -5.2343   13.5816 N   0  0
   93.5953   -3.8918   13.2050 S   0  0
  1 25  1  0
  2 25  1  0
  3  4  1  0
  5  6  1  0
  6  9  1  0
  7 26  1  0
  7  2  1  0
  8 26  1  0
 10 11  1  0
 12 13  1  0
 14 15  1  0
 16 11  1  0
 17 14  1  0
 17 32  1  0
 18 32  1  0
 19 30  1  0
 20 21  1  0
 22 23  1  0
 24 31  1  0
 24 19  1  0
 29 28  1  0
 29 10  1  0
 31 18  1  0
  2  3  2  0
  4  5  2  0
  6  7  2  0
  9 28  2  0
 10 27  2  0
 11 12  2  0
 13 14  2  0
 15 16  2  0
 18 30  2  0
 19 20  2  0
 21 22  2  0
 23 24  2  0
M  END
> <Name>
CSC028061619 MCULE-9507879902 MolPort-044-407-285 PubChem-72035461

> <rmsd>
0.416183174

$$$$
CSC067351282
  SciTegic06052412183D

 29 31  0  0  0  0            999 V2000
   98.1007   -2.0723   19.6234 C   0  0
   96.4957   -2.5148   21.4559 C   0  0
   95.4827   -2.8848   20.5562 C   0  0
   94.2211   -3.2770   21.0241 C   0  0
   93.9701   -3.2956   22.3977 C   0  0
   94.9718   -2.9288   23.2986 C   0  0
   96.2392   -2.5382   22.8356 C   0  0
   97.1060   -2.2015   25.1411 C   0  0
   97.2429   -3.6260   25.6446 C   0  0
   93.1335   -3.6710   20.0769 C   0  0
   92.6840   -2.4879   19.2395 C   0  0
   93.0182   -6.0625   19.2873 C   0  0
   93.4949   -7.1259   18.3585 C   0  0
   91.9353   -6.8714   16.4353 C   0  0
   91.7225   -6.4155   15.1225 C   0  0
   92.7694   -5.8537   14.3786 C   0  0
   92.5443   -5.4022   13.0749 C   0  0
   91.2723   -5.5080   12.5049 C   0  0
   90.2196   -6.0657   13.2358 C   0  0
   90.4358   -6.5197   14.5398 C   0  0
   89.3818   -7.0758   15.2672 C   0  0
   89.5948   -7.5301   16.5700 C   0  0
   90.8618   -7.4293   17.1499 C   0  0
   97.7598   -2.1225   21.0022 O   0  0
   97.2546   -2.1653   23.7258 O   0  0
   97.0852   -3.6462   27.0292 O   0  0
   92.1214   -6.3283   20.1311 O   0  0
   93.2104   -6.7677   17.0096 O   0  0
   93.5786   -4.7516   19.2101 N   0  0
  1 24  1  0
  2 24  1  0
  3  4  1  0
  5  6  1  0
  7 25  1  0
  7  2  1  0
  8 25  1  0
  8  9  1  0
  9 26  1  0
 10  4  1  0
 10 11  1  0
 10 29  1  0
 13 12  1  0
 13 28  1  0
 14 28  1  0
 14 15  1  0
 16 17  1  0
 18 19  1  0
 20 21  1  0
 20 15  1  0
 22 23  1  0
 29 12  1  0
  2  3  2  0
  4  5  2  0
  6  7  2  0
 12 27  2  0
 15 16  2  0
 17 18  2  0
 19 20  2  0
 21 22  2  0
 23 14  2  0
M  END
> <Name>
CSC067351282

> <rmsd>
0.381963015

$$$$
CSC071817193
  SciTegic06052412183D

 27 29  0  0  0  0            999 V2000
   96.8906   -1.3086   26.0703 N   0  0
   96.9084   -4.1425   22.5048 N   0  0
   94.8528   -6.0687   16.5954 N   0  0
   92.1493   -5.1744   13.3723 N   0  0
   96.8375   -2.7260   25.9596 C   0  0
   96.3108   -3.3563   24.7192 C   0  0
   97.4335   -3.5370   23.7169 C   0  0
   96.9948   -3.4931   21.2336 C   0  0
   96.4468   -4.1470   20.0323 C   0  0
   95.8344   -5.4041   20.1270 C   0  0
   95.3146   -6.0251   18.9878 C   0  0
   95.3996   -5.4003   17.7399 C   0  0
   94.8435   -5.5893   15.2444 C   0  0
   94.1890   -6.4074   14.1863 C   0  0
   92.7251   -6.1230   14.1481 C   0  0
   90.5987   -6.0686   14.5608 C   0  0
   89.3702   -6.3816   15.1357 C   0  0
   89.3580   -7.3887   16.1202 C   0  0
   90.5539   -8.0430   16.4975 C   0  0
   91.7794   -7.7013   15.8948 C   0  0
   91.7503   -6.7040   14.9237 C   0  0
   96.0112   -4.1419   17.6433 C   0  0
   96.5312   -3.5198   18.7814 C   0  0
   97.2652   -3.4457   26.8991 O   0  0
   97.5399   -2.3589   21.1418 O   0  0
   95.3513   -4.4772   14.9409 O   0  0
   90.8692   -5.1730   13.6426 O   0  0
  1  5  1  0
  2  8  1  0
  3 13  1  0
  4 27  1  0
  6  5  1  0
  6  7  1  0
  7  2  1  0
  8  9  1  0
 10 11  1  0
 12  3  1  0
 12 22  1  0
 14 13  1  0
 14 15  1  0
 16 27  1  0
 17 18  1  0
 19 20  1  0
 21 15  1  0
 21 16  1  0
 23  9  1  0
  5 24  2  0
  8 25  2  0
  9 10  2  0
 11 12  2  0
 13 26  2  0
 15  4  2  0
 16 17  2  0
 18 19  2  0
 20 21  2  0
 22 23  2  0
M  END
> <Name>
CSC071817193

> <rmsd>
0.34769851

$$$$
CSC028329725 MCULE-6709533816 MolPort-009-039-450 PubChem-30890698 ZINC000023185558
  SciTegic06052412183D

 33 37  0  0  0  0            999 V2000
   96.9877   -2.7435   28.3050 C   0  0
   97.2390   -3.0156   25.8589 C   0  0
   96.9871   -1.6561   25.6134 C   0  0
   96.9977   -1.1626   24.3060 C   0  0
   97.2592   -2.0197   23.2287 C   0  0
   97.2762   -1.4982   21.8531 C   0  0
   97.4409   -1.3434   19.7820 C   0  0
   97.6171   -1.6574   18.3366 C   0  0
   96.5590   -2.9723   16.7120 C   0  0
   95.3109   -3.1938   15.8437 C   0  0
   93.1088   -2.5370   15.3483 C   0  0
   92.1620   -3.6011   15.7999 C   0  0
   91.9522   -4.8335   15.0078 C   0  0
   91.1424   -5.9001   15.3397 C   0  0
   91.2459   -6.8175   14.3248 C   0  0
   90.5460   -8.0226   14.3523 C   0  0
   89.7227   -8.2764   15.4634 C   0  0
   89.6177   -7.3337   16.5082 C   0  0
   90.3343   -6.1253   16.4544 C   0  0
   92.5116   -5.1875   13.7748 C   0  0
   93.4649   -4.3687   12.9743 C   0  0
   94.5766   -0.9692   16.2811 C   0  0
   95.8688   -0.7227   17.0757 C   0  0
   97.5092   -3.3764   23.4749 C   0  0
   97.4989   -3.8702   24.7830 C   0  0
   97.2382   -3.5394   27.1550 O   0  0
   91.5292   -3.4313   16.8762 O   0  0
   97.1473   -0.1553   20.2461 O   0  0
   97.5333   -2.2573   20.7656 N   0  0
   96.3281   -1.9482   17.7325 N   0  0
   94.1864   -2.3801   16.3116 N   0  0
   92.0800   -6.4013   13.3556 N   0  0
   97.0384   -0.2086   21.5382 N   0  0
  1 26  1  0
  2 26  1  0
  3  4  1  0
  5  6  1  0
  5 24  1  0
  6 29  1  0
  7 28  1  0
  8  7  1  0
  8 30  1  0
  9 30  1  0
  9 10  1  0
 10 31  1  0
 11 31  1  0
 11 12  1  0
 12 13  1  0
 13 14  1  0
 14 15  1  0
 15 32  1  0
 16 17  1  0
 18 19  1  0
 21 20  1  0
 22 31  1  0
 22 23  1  0
 23 30  1  0
 25  2  1  0
 28 33  1  0
 32 20  1  0
  2  3  2  0
  4  5  2  0
  6 33  2  0
  7 29  2  0
 12 27  2  0
 15 16  2  0
 17 18  2  0
 19 14  2  0
 20 13  2  0
 24 25  2  0
M  END
> <Name>
CSC028329725 MCULE-6709533816 MolPort-009-039-450 PubChem-30890698 ZINC000023185558

> <rmsd>
0.415419608

$$$$
CSC028081413 MCULE-4996512449 MolPort-001-738-584 PubChem-4658467 ZINC000097983443
  SciTegic06052412183D

 47 53  0  0  0  0            999 V2000
  100.5135   -0.2446   20.8122 F   0  0
   98.1299   -0.5004   19.3737 F   0  0
   99.4663   -2.3249   19.3297 F   0  0
   98.6510   -0.1977   22.0897 F   0  0
   99.4492   -0.9911   21.2851 C   0  0
   98.6400   -1.5476   20.1233 C   0  0
   96.6320   -3.0095   19.8317 C   0  0
   95.6209   -3.7675   20.4443 C   0  0
   94.5959   -4.5190   22.6803 C   0  0
   94.6946   -4.5112   24.1620 C   0  0
   95.8421   -4.0615   24.8602 C   0  0
   95.8513   -4.0693   26.2771 C   0  0
   98.0527   -3.2053   26.2822 C   0  0
   98.0557   -3.2067   24.8726 C   0  0
   99.1869   -2.7747   24.1765 C   0  0
  100.3128   -2.3360   24.8815 C   0  0
  100.3086   -2.3309   26.2813 C   0  0
   99.1791   -2.7662   26.9828 C   0  0
   94.7407   -4.5259   26.9856 C   0  0
   93.6145   -4.9779   26.2998 C   0  0
   93.5938   -4.9703   24.9036 C   0  0
   94.6793   -4.4339   19.6459 C   0  0
   94.7328   -4.3533   18.2483 C   0  0
   92.7242   -5.8988   17.8322 C   0  0
   91.7613   -6.4564   16.8472 C   0  0
   91.7215   -6.0588   15.4876 C   0  0
   90.7728   -6.6419   14.6111 C   0  0
   91.5875   -5.3205   12.8268 C   0  0
   92.5317   -4.7335   13.6935 C   0  0
   93.4161   -3.7655   13.2112 C   0  0
   93.3609   -3.3809   11.8674 C   0  0
   92.4231   -3.9631   11.0065 C   0  0
   91.5358   -4.9330   11.4852 C   0  0
   89.8783   -7.6031   15.0808 C   0  0
   89.9138   -7.9932   16.4186 C   0  0
   90.8447   -7.4245   17.2903 C   0  0
   95.7378   -3.5937   17.6471 C   0  0
   96.6815   -2.9278   18.4306 C   0  0
   97.5727   -2.3456   20.6336 O   0  0
   93.6227   -5.1040   22.1308 O   0  0
   92.6205   -6.2234   19.0471 O   0  0
   95.5765   -3.8446   21.8772 N   0  0
   96.9520   -3.6385   26.9481 N   0  0
   96.9546   -3.6324   24.2021 N   0  0
   93.7762   -5.0169   17.4120 N   0  0
   90.7324   -6.2588   13.3075 N   0  0
   92.5724   -5.1163   14.9951 N   0  0
  5  1  1  0
  5  6  1  0
  5  4  1  0
  6 39  1  0
  6  2  1  0
  6  3  1  0
  7 39  1  0
  8 42  1  0
  8 22  1  0
  9 10  1  0
 10 11  1  0
 11 12  1  0
 12 19  1  0
 13 43  1  0
 14 44  1  0
 14 15  1  0
 16 17  1  0
 18 13  1  0
 20 21  1  0
 23 45  1  0
 23 37  1  0
 24 25  1  0
 25 26  1  0
 26 27  1  0
 27 34  1  0
 28 46  1  0
 29 47  1  0
 29 30  1  0
 31 32  1  0
 33 28  1  0
 35 36  1  0
 38  7  1  0
 42  9  1  0
 45 24  1  0
  7  8  2  0
  9 40  2  0
 11 44  2  0
 12 43  2  0
 13 14  2  0
 15 16  2  0
 17 18  2  0
 19 20  2  0
 21 10  2  0
 22 23  2  0
 24 41  2  0
 26 47  2  0
 27 46  2  0
 28 29  2  0
 30 31  2  0
 32 33  2  0
 34 35  2  0
 36 25  2  0
 37 38  2  0
M  END
> <Name>
CSC028081413 MCULE-4996512449 MolPort-001-738-584 PubChem-4658467 ZINC000097983443

> <rmsd>
0.403720886

$$$$
CSC026324964 MCULE-5083054244 MolPort-004-113-064 PubChem-16253172 ZINC000009704672
  SciTegic06052412183D

 30 34  0  0  0  0            999 V2000
   97.9067   -1.9555   21.1560 O   0  5
   94.4249   -4.5800   18.7645 O   0  0
   98.6798   -3.1199   22.9310 O   0  0
   97.7064   -2.8154   22.2113 N   0  3
   96.5301   -3.6380   24.7978 N   0  0
   97.0742   -3.6975   26.9522 N   0  0
   92.8098   -5.8522   19.8824 N   0  0
   92.3663   -5.8802   17.4632 N   0  0
   96.4828   -3.5606   22.2973 C   0  0
   95.9673   -4.0289   23.5338 C   0  0
   96.5649   -4.3874   25.9141 C   0  0
   97.3478   -2.4684   26.4681 C   0  0
   96.9998   -2.4228   25.1328 C   0  0
   94.8295   -4.8501   23.5300 C   0  0
   94.1873   -5.1794   22.3365 C   0  0
   94.6657   -4.6878   21.1184 C   0  0
   93.9797   -5.0235   19.8582 C   0  0
   92.0577   -6.2474   18.7313 C   0  0
   90.4734   -7.1789   17.1476 C   0  0
   89.4806   -7.7899   16.3861 C   0  0
   89.5073   -7.6072   14.9952 C   0  0
   90.5132   -6.8267   14.3959 C   0  0
   91.5158   -6.2132   15.1940 C   0  0
   91.4761   -6.4045   16.5802 C   0  0
   92.5113   -5.4388   14.5855 C   0  0
   92.5155   -5.2724   13.1975 C   0  0
   91.5281   -5.8768   12.4124 C   0  0
   90.5292   -6.6521   13.0095 C   0  0
   95.8133   -3.8865   21.1092 C   0  0
   90.6823   -7.2276   18.8121 S   0  0
  4  1  1  0
  4  9  1  0
  5 11  1  0
  7 18  1  0
 10  5  1  0
 10 14  1  0
 12  6  1  0
 13  5  1  0
 15 16  1  0
 16 17  1  0
 17  7  1  0
 18 30  1  0
 19 30  1  0
 20 21  1  0
 22 23  1  0
 23 25  1  0
 24  8  1  0
 24 19  1  0
 26 27  1  0
 28 22  1  0
 29  9  1  0
  4  3  2  0
  9 10  2  0
 11  6  2  0
 12 13  2  0
 14 15  2  0
 16 29  2  0
 17  2  2  0
 18  8  2  0
 19 20  2  0
 21 22  2  0
 23 24  2  0
 25 26  2  0
 27 28  2  0
M  CHG  2   1  -1   4   1
M  END
> <Name>
CSC026324964 MCULE-5083054244 MolPort-004-113-064 PubChem-16253172 ZINC000009704672

> <rmsd>
0.409017712

$$$$
CSC028093614 MCULE-5089319684 MolPort-044-414-309 PubChem-4390491
  SciTegic06052412183D

 39 42  0  0  0  0            999 V2000
   97.1840   -4.2719   22.8228 C   0  0
   97.6017   -3.2056   21.9423 C   0  0
   96.2442   -5.1676   22.4751 C   0  0
   95.4788   -5.2690   21.2139 C   0  0
   95.6431   -4.3831   20.1419 C   0  0
   94.8882   -4.5333   18.9776 C   0  0
   93.9530   -5.5734   18.8613 C   0  0
   93.7833   -6.4648   19.9318 C   0  0
   92.6160   -8.4471   20.8485 C   0  0
   94.5480   -6.3048   21.0993 C   0  0
   93.2017   -4.9753   16.5403 C   0  0
   92.3084   -5.2975   15.3952 C   0  0
   92.3820   -4.4768   14.2576 C   0  0
   91.5792   -4.7099   13.1410 C   0  0
   90.6804   -5.7737   13.1368 C   0  0
   90.5801   -6.6095   14.2486 C   0  0
   89.6721   -7.6722   14.2252 C   0  0
   89.5556   -8.5208   15.3273 C   0  0
   90.3469   -8.3106   16.4576 C   0  0
   91.2564   -7.2509   16.4882 C   0  0
   91.3917   -6.3833   15.3919 C   0  0
   97.8124   -4.3740   24.1549 C   0  0
   99.3330   -3.2554   25.8666 C   0  0
  100.7038   -3.0342   26.0316 C   0  0
  101.2444   -2.8359   27.3032 C   0  0
  100.4179   -2.8447   28.4322 C   0  0
   99.0390   -3.0320   28.2678 C   0  0
   98.4824   -3.2255   26.9924 C   0  0
   96.1870   -3.3254   27.9208 C   0  0
   97.9400   -2.3494   21.2409 N   0  0
   98.8321   -3.4409   24.5365 N   0  0
  100.9769   -2.6478   29.7380 N   0  3
   92.8505   -7.5013   19.8143 O   0  0
   93.1743   -5.7571   17.7064 O   0  0
   93.9847   -3.9897   16.4495 O   0  0
   97.4839   -5.3058   24.9405 O   0  0
   97.0981   -3.3540   26.8304 O   0  0
  102.3310   -2.4574   29.8924 O   0  5
  100.2437   -2.6487   30.7486 O   0  0
  1  2  1  0
  1 22  1  0
  3  4  1  0
  5  6  1  0
  7  8  1  0
  7 34  1  0
  8 33  1  0
  9 33  1  0
 10  4  1  0
 11 34  1  0
 11 12  1  0
 13 14  1  0
 15 16  1  0
 17 18  1  0
 19 20  1  0
 21 12  1  0
 21 16  1  0
 22 31  1  0
 24 25  1  0
 26 27  1  0
 26 32  1  0
 28 37  1  0
 28 23  1  0
 29 37  1  0
 31 23  1  0
 32 38  1  0
  1  3  2  0
  4  5  2  0
  6  7  2  0
  8 10  2  0
 11 35  2  0
 12 13  2  0
 14 15  2  0
 16 17  2  0
 18 19  2  0
 20 21  2  0
 22 36  2  0
 23 24  2  0
 25 26  2  0
 27 28  2  0
 32 39  2  0
  2 30  3  0
M  CHG  2  32   1  38  -1
M  END
> <Name>
CSC028093614 MCULE-5089319684 MolPort-044-414-309 PubChem-4390491

> <rmsd>
0.413653702

$$$$
CSC027285394 MCULE-2664296060 MolPort-005-599-189 PubChem-17469215
  SciTegic06052412183D

 30 34  0  0  0  0            999 V2000
   92.9600   -3.3518   19.5909 O   0  0
   97.3814   -2.4405   20.7213 O   0  0
   97.1993   -3.5243   27.1485 O   0  0
   98.5954   -2.0521   25.2753 O   0  0
   93.5229   -4.3978   19.1648 C   0  0
   94.8897   -4.7668   19.6402 C   0  0
   95.9024   -3.6760   19.2822 C   0  0
   96.4830   -3.3127   20.5878 C   0  0
   96.2608   -3.9106   23.0662 C   0  0
   97.2620   -3.0218   23.4911 C   0  0
   97.5826   -2.9144   24.8461 C   0  0
   96.8887   -3.6767   25.7945 C   0  0
   97.9895   -2.4215   27.5986 C   0  0
   99.1170   -2.1372   26.6035 C   0  0
   95.9022   -4.5746   25.3839 C   0  0
   95.5912   -4.6901   24.0255 C   0  0
   94.9064   -4.9437   21.1659 C   0  0
   91.5349   -4.9357   17.7145 C   0  0
   91.1214   -5.9794   16.7290 C   0  0
   91.4025   -5.8484   15.3559 C   0  0
   91.0070   -6.8831   14.4777 C   0  0
   91.2705   -6.7793   13.1090 C   0  0
   91.9262   -5.6520   12.6059 C   0  0
   92.3204   -4.6255   13.4689 C   0  0
   92.0602   -4.7216   14.8390 C   0  0
   90.3557   -8.0093   14.9790 C   0  0
   90.1046   -8.0987   16.3485 C   0  0
   95.9229   -4.0373   21.6717 N   0  0
   92.8632   -5.2403   18.2207 N   0  0
   90.4902   -7.0965   17.1833 N   0  0
  5 29  1  0
  6  5  1  0
  6  7  1  0
  7  8  1  0
  8 28  1  0
 10 11  1  0
 11  4  1  0
 12  3  1  0
 12 15  1  0
 13  3  1  0
 13 14  1  0
 14  4  1  0
 16  9  1  0
 17 28  1  0
 17  6  1  0
 18 29  1  0
 18 19  1  0
 19 20  1  0
 20 21  1  0
 21 26  1  0
 22 23  1  0
 24 25  1  0
 27 30  1  0
 28  9  1  0
  5  1  2  0
  8  2  2  0
  9 10  2  0
 11 12  2  0
 15 16  2  0
 19 30  2  0
 21 22  2  0
 23 24  2  0
 25 20  2  0
 26 27  2  0
M  END
> <Name>
CSC027285394 MCULE-2664296060 MolPort-005-599-189 PubChem-17469215

> <rmsd>
0.407906443

$$$$
CSC027883382 MCULE-1507877610 MolPort-005-852-847 PubChem-2473429 ZINC000003356158
  SciTegic06052412183D

 40 44  0  0  0  0            999 V2000
   90.7475   -7.1987   10.6901 O   0  5
   89.5491   -8.3013   12.2505 O   0  0
   91.6179   -5.6098   19.0145 O   0  0
   94.3759   -3.8847   15.6359 O   0  0
   97.5373   -2.0942   21.2878 O   0  0
   95.6561   -1.3400   22.3925 O   0  0
   97.8750   -2.3385   24.3187 O   0  0
   97.1894   -3.6660   26.5624 O   0  0
   94.4239   -3.3710   30.9025 O   0  0
   90.4163   -7.4384   12.0043 N   0  3
   93.0849   -4.7124   17.4142 N   0  0
   95.9399   -1.9454   25.5815 N   0  0
   95.2444   -3.0328   27.6809 N   0  0
   91.1263   -6.7509   13.0568 C   0  0
   90.7546   -6.8269   14.4264 C   0  0
   89.6400   -7.5700   14.8424 C   0  0
   89.2811   -7.6393   16.1870 C   0  0
   90.0325   -6.9627   17.1445 C   0  0
   91.1483   -6.2056   16.7683 C   0  0
   91.9391   -5.5001   17.7985 C   0  0
   93.4205   -4.6176   16.0147 C   0  0
   92.6264   -5.3570   15.0121 C   0  0
   92.9708   -5.2820   13.6611 C   0  0
   92.2323   -5.9686   12.7021 C   0  0
   91.5151   -6.1281   15.4066 C   0  0
   93.8878   -4.0429   18.4088 C   0  0
   95.2879   -4.1162   18.3578 C   0  0
   96.0674   -3.4661   19.3174 C   0  0
   95.4595   -2.7327   20.3451 C   0  0
   94.0620   -2.6583   20.4001 C   0  0
   93.2820   -3.3073   19.4389 C   0  0
   96.2781   -2.0474   21.3581 C   0  0
   96.3909   -0.7042   23.4324 C   0  0
   96.7975   -1.7024   24.4617 C   0  0
   96.1757   -2.9169   26.6061 C   0  0
   95.4007   -4.0253   28.7316 C   0  0
   94.2893   -3.8982   29.7135 C   0  0
   92.9897   -4.3018   29.5003 C   0  0
   92.3263   -3.9780   30.6714 C   0  0
   93.2639   -3.4021   31.5128 C   0  0
 10  1  1  0
 10 14  1  0
 11 21  1  0
 11 26  1  0
 12 35  1  0
 15 16  1  0
 17 18  1  0
 19 20  1  0
 20 11  1  0
 21 22  1  0
 22 23  1  0
 24 14  1  0
 25 15  1  0
 25 19  1  0
 27 28  1  0
 29 30  1  0
 29 32  1  0
 31 26  1  0
 32  6  1  0
 33  6  1  0
 33 34  1  0
 34 12  1  0
 35 13  1  0
 36 13  1  0
 36 37  1  0
 37  9  1  0
 38 39  1  0
 40  9  1  0
 10  2  2  0
 14 15  2  0
 16 17  2  0
 18 19  2  0
 20  3  2  0
 21  4  2  0
 22 25  2  0
 23 24  2  0
 26 27  2  0
 28 29  2  0
 30 31  2  0
 32  5  2  0
 34  7  2  0
 35  8  2  0
 37 38  2  0
 39 40  2  0
M  CHG  2   1  -1  10   1
M  END
> <Name>
CSC027883382 MCULE-1507877610 MolPort-005-852-847 PubChem-2473429 ZINC000003356158

> <rmsd>
0.402780294

$$$$
CSC047799060 ChemDiv-D353-0395 MCULE-2438018837 MolPort-007-701-168 PubChem-43952680 ZINC000033004655
  SciTegic06052412183D

 32 35  0  0  0  0            999 V2000
   95.6284   -2.5110   20.7318 O   0  0
   94.9025   -3.5565   15.3390 O   0  0
   94.5121   -4.0494   25.5540 O   0  0
   99.2280   -2.8519   25.6809 O   0  0
   97.0138   -3.7508   27.0001 O   0  0
   96.0083   -2.1150   19.5417 C   0  0
   95.2038   -3.7515   17.6898 C   0  0
   94.5054   -4.0753   16.4166 C   0  0
   92.6125   -5.4209   15.3181 C   0  0
   92.9426   -5.0395   14.0082 C   0  0
   92.1805   -5.4755   12.9219 C   0  0
   91.0734   -6.3003   13.1277 C   0  0
   90.7270   -6.6934   14.4214 C   0  0
   89.6170   -7.5182   14.6235 C   0  0
   89.2659   -7.9157   15.9165 C   0  0
   90.0230   -7.4905   17.0114 C   0  0
   91.1339   -6.6649   16.8185 C   0  0
   91.4980   -6.2565   15.5267 C   0  0
   96.7116   -2.4380   21.4693 C   0  0
   96.7715   -2.7859   22.8952 C   0  0
   95.6314   -3.2481   23.5538 C   0  0
   95.6678   -3.5829   24.9171 C   0  0
   93.2683   -4.2116   24.8842 C   0  0
   96.8841   -3.4450   25.6347 C   0  0
   98.0307   -2.9818   24.9668 C   0  0
  100.4318   -2.3827   25.0888 C   0  0
   97.9660   -2.6559   23.6046 C   0  0
   95.9556   -4.1797   27.8449 C   0  0
   94.9304   -2.0083   18.1214 S   0  0
   93.3929   -4.9783   16.4422 N   0  0
   97.3144   -1.7933   19.5211 N   0  0
   97.7634   -1.9986   20.7494 N   0  0
  6  1  1  0
  6 29  1  0
  7 29  1  0
  7  8  1  0
  8 30  1  0
 10 11  1  0
 12 13  1  0
 14 15  1  0
 16 17  1  0
 18  9  1  0
 18 13  1  0
 19 20  1  0
 19  1  1  0
 21 22  1  0
 22  3  1  0
 23  3  1  0
 24 25  1  0
 24  5  1  0
 25  4  1  0
 26  4  1  0
 27 20  1  0
 28  5  1  0
 30  9  1  0
 31 32  1  0
  6 31  2  0
  8  2  2  0
  9 10  2  0
 11 12  2  0
 13 14  2  0
 15 16  2  0
 17 18  2  0
 19 32  2  0
 20 21  2  0
 22 24  2  0
 25 27  2  0
M  END
> <Name>
CSC047799060 ChemDiv-D353-0395 MCULE-2438018837 MolPort-007-701-168 PubChem-43952680 ZINC000033004655

> <rmsd>
0.331867427

$$$$
CSC028113108 MCULE-1762711441 MolPort-044-377-812 PubChem-1830581
  SciTegic06052412183D

 32 35  0  0  0  0            999 V2000
   96.4949   -2.8659   19.3886 C   0  0
   95.8793   -3.1473   18.0871 C   0  0
   93.1477   -5.1161   16.7150 C   0  0
   92.4618   -5.4592   15.4461 C   0  0
   92.8744   -4.9242   14.2019 C   0  0
   92.2027   -5.2714   13.0272 C   0  0
   91.1195   -6.1467   13.0601 C   0  0
   90.6945   -6.6864   14.2721 C   0  0
   89.6065   -7.5635   14.2924 C   0  0
   89.1697   -8.1121   15.5004 C   0  0
   89.8190   -7.7858   16.6929 C   0  0
   90.9075   -6.9097   16.6816 C   0  0
   91.3615   -6.3478   15.4756 C   0  0
   96.9787   -2.8214   21.4900 C   0  0
   96.9996   -3.0430   22.9461 C   0  0
   96.0633   -3.8932   23.5513 C   0  0
   96.0879   -4.1000   24.9330 C   0  0
   97.0513   -3.4588   25.7278 C   0  0
   97.9837   -2.6098   25.1240 C   0  0
   97.9592   -2.4028   23.7419 C   0  0
   96.2279   -4.5205   27.8163 C   0  0
   96.6808   -5.9612   27.6413 C   0  0
   95.7450   -6.9040   28.3762 C   0  0
   96.0033   -6.8494   29.8702 C   0  0
   96.0847   -3.3934   20.5995 C   0  0
   96.3394   -2.6073   17.0454 O   0  0
   93.9486   -4.0466   14.1106 O   0  0
   97.1013   -3.6431   27.1140 O   0  0
   94.7613   -4.0309   18.0013 N   0  0
   94.1587   -4.3135   16.7706 N   0  0
   97.5492   -2.0467   19.5551 N   0  0
   97.8458   -2.0193   20.8425 N   0  0
  1  2  1  0
  1 31  1  0
  2 29  1  0
  3  4  1  0
  5 27  1  0
  5  6  1  0
  7  8  1  0
  9 10  1  0
 11 12  1  0
 13  4  1  0
 13  8  1  0
 14 15  1  0
 14 25  1  0
 16 17  1  0
 18 19  1  0
 18 28  1  0
 20 15  1  0
 21 28  1  0
 21 22  1  0
 22 23  1  0
 23 24  1  0
 29 30  1  0
 31 32  1  0
  2 26  2  0
  3 30  2  0
  4  5  2  0
  6  7  2  0
  8  9  2  0
 10 11  2  0
 12 13  2  0
 14 32  2  0
 15 16  2  0
 17 18  2  0
 19 20  2  0
 25  1  2  0
M  END
> <Name>
CSC028113108 MCULE-1762711441 MolPort-044-377-812 PubChem-1830581

> <rmsd>
0.34240675

$$$$
CSC065797674
  SciTegic06052412183D

 28 30  0  0  0  0            999 V2000
   97.4360   -3.4585   27.0179 O   0  0
   98.0251   -1.4120   26.1696 O   0  0
   97.3806   -2.3221   21.2077 O   0  0
   93.4837   -2.3899   15.5043 O   0  0
   97.3018   -2.4382   26.0857 C   0  0
   96.3305   -2.5743   24.9674 C   0  0
   96.9691   -3.3341   23.8223 C   0  0
   96.2892   -2.9148   21.4301 C   0  0
   95.2936   -3.0546   20.3530 C   0  0
   95.5506   -2.5345   19.0767 C   0  0
   94.6049   -2.6678   18.0567 C   0  0
   93.3884   -3.3226   18.2984 C   0  0
   92.4763   -3.0204   15.9217 C   0  0
   91.3615   -3.3230   14.9799 C   0  0
   91.5280   -4.6896   14.3953 C   0  0
   90.9830   -5.8253   15.0224 C   0  0
   89.7297   -6.7987   16.7941 C   0  0
   89.9103   -8.0752   16.2558 C   0  0
   90.6422   -8.2248   15.0767 C   0  0
   91.1841   -7.1022   14.4504 C   0  0
   91.9203   -7.2360   13.2713 C   0  0
   92.4617   -6.1048   12.6553 C   0  0
   92.2679   -4.8387   13.2158 C   0  0
   93.1328   -3.8423   19.5712 C   0  0
   94.0780   -3.7098   20.5924 C   0  0
   96.0197   -3.4502   22.7285 N   0  0
   92.3953   -3.4817   17.2767 N   0  0
   90.2630   -5.7115   16.1738 N   0  0
  5  1  1  0
  6  5  1  0
  6  7  1  0
  7 26  1  0
  8  9  1  0
 10 11  1  0
 12 27  1  0
 12 24  1  0
 14 13  1  0
 14 15  1  0
 15 16  1  0
 17 28  1  0
 18 19  1  0
 20 21  1  0
 20 16  1  0
 22 23  1  0
 25  9  1  0
 26  8  1  0
 27 13  1  0
  5  2  2  0
  8  3  2  0
  9 10  2  0
 11 12  2  0
 13  4  2  0
 16 28  2  0
 17 18  2  0
 19 20  2  0
 21 22  2  0
 23 15  2  0
 24 25  2  0
M  END
> <Name>
CSC065797674

> <rmsd>
0.39929536

$$$$
CSC074753686
  SciTegic06052412183D

 27 29  0  0  0  0            999 V2000
   97.3360   -3.4975   26.9346 O   0  0
   99.0460   -4.1869   25.5724 O   0  0
   97.4668   -2.2771   21.1344 O   0  0
   93.9319   -2.7588   15.2185 O   0  0
   97.8199   -3.9403   25.7108 C   0  0
   96.8960   -4.0875   24.5544 C   0  0
   96.7578   -2.7606   23.8353 C   0  0
   96.2842   -2.6551   21.3602 C   0  0
   95.3400   -2.8295   20.2426 C   0  0
   94.0253   -3.2505   20.4850 C   0  0
   93.1293   -3.4167   19.4252 C   0  0
   93.5333   -3.1649   18.1104 C   0  0
   92.8133   -3.1437   15.6504 C   0  0
   91.7167   -3.4306   14.6846 C   0  0
   92.1992   -6.7482   13.4000 C   0  0
   91.3163   -7.0134   14.4294 C   0  0
   90.7702   -8.2087   14.8874 C   0  0
   89.8946   -8.1379   15.9879 C   0  0
   89.5952   -6.8949   16.5916 C   0  0
   90.1663   -5.7048   16.1027 C   0  0
   91.0261   -5.8138   15.0105 C   0  0
   94.8487   -2.7440   17.8658 C   0  0
   95.7456   -2.5774   18.9246 C   0  0
   95.8620   -2.9150   22.7016 N   0  0
   92.5855   -3.3489   17.0506 N   0  0
   91.6957   -4.8500   14.3637 N   0  0
   92.4124   -5.4061   13.3938 N   0  0
  5  1  1  0
  6  5  1  0
  6  7  1  0
  7 24  1  0
  8  9  1  0
 10 11  1  0
 12 25  1  0
 12 22  1  0
 14 13  1  0
 14 26  1  0
 15 16  1  0
 17 18  1  0
 19 20  1  0
 21 26  1  0
 21 16  1  0
 23  9  1  0
 24  8  1  0
 25 13  1  0
 26 27  1  0
  5  2  2  0
  8  3  2  0
  9 10  2  0
 11 12  2  0
 13  4  2  0
 15 27  2  0
 16 17  2  0
 18 19  2  0
 20 21  2  0
 22 23  2  0
M  END
> <Name>
CSC074753686

> <rmsd>
0.379683971

$$$$
CSC091399729
  SciTegic06052412183D

 29 32  0  0  0  0            999 V2000
   92.8951   -7.1693   19.4087 C   0  0
   92.9762   -5.8130   18.7876 C   0  0
   93.6740   -4.7192   19.2611 C   0  0
   91.5716   -6.2218   16.7462 C   0  0
   91.5689   -6.0389   15.3417 C   0  0
   92.4300   -5.1293   14.7134 C   0  0
   92.3999   -4.9890   13.3245 C   0  0
   90.6977   -6.6343   13.1523 C   0  0
   90.6941   -6.8083   14.5374 C   0  0
   89.8378   -7.7426   15.1199 C   0  0
   89.8418   -7.9240   16.5023 C   0  0
   90.6997   -7.1703   17.3052 C   0  0
   94.4646   -4.6104   20.4960 C   0  0
   95.9030   -3.1885   22.0190 C   0  0
   96.7588   -1.9403   21.8825 C   0  0
   94.9653   -3.0446   23.2117 C   0  0
   95.6851   -3.2722   24.4998 C   0  0
   96.2097   -4.5316   24.8078 C   0  0
   96.8658   -4.7180   26.0266 C   0  0
   96.4771   -2.4526   26.6236 C   0  0
   95.8139   -2.2255   25.4155 C   0  0
   93.5210   -3.7163   18.3738 N   0  0
   92.7598   -4.1802   17.3923 N   0  0
   92.4228   -5.4430   17.6135 N   0  0
   91.5415   -5.7353   12.5797 N   0  0
   95.1244   -3.3795   20.8035 N   0  0
   96.9860   -3.6833   26.9018 N   0  0
   94.5633   -5.5946   21.2778 O   0  0
   97.7490   -2.1465   20.9221 O   0  0
  1  2  1  0
  3 22  1  0
  3 13  1  0
  4  5  1  0
  6  7  1  0
  8 25  1  0
  9 10  1  0
  9  5  1  0
 11 12  1  0
 13 26  1  0
 14 26  1  0
 14 15  1  0
 14 16  1  0
 15 29  1  0
 16 17  1  0
 18 19  1  0
 20 27  1  0
 21 17  1  0
 24 23  1  0
 24  4  1  0
 24  2  1  0
  2  3  2  0
  5  6  2  0
  7 25  2  0
  8  9  2  0
 10 11  2  0
 12  4  2  0
 13 28  2  0
 17 18  2  0
 19 27  2  0
 20 21  2  0
 22 23  2  0
M  END
> <Name>
CSC091399729

> <rmsd>
0.356812835

$$$$
CSC028081422 CHEMBL1525986 MCULE-9945693343 MolPort-005-820-636 PubChem-2366036 ZINC000003248873
  SciTegic06052412183D

 40 43  0  0  0  0            999 V2000
   96.6168   -6.5106   12.8873 C   0  0
   96.1022   -4.8107   14.6701 C   0  0
   95.3069   -3.7713   15.1779 C   0  0
   95.6281   -3.1517   16.3878 C   0  0
   96.7507   -3.5588   17.1119 C   0  0
   98.1479   -3.2883   19.1356 C   0  0
   98.2247   -2.3764   20.3066 C   0  0
   99.2908   -0.4271   21.3919 C   0  0
  100.0378   -1.0572   22.5235 C   0  0
   99.3259   -1.6466   23.6900 C   0  0
   98.1662   -1.0518   24.2246 C   0  0
   96.3358   -0.9918   25.8417 C   0  0
   98.0099   -2.7716   25.8554 C   0  0
   99.6386   -4.5881   25.9825 C   0  0
   99.7986   -2.8258   24.2958 C   0  0
   97.5507   -4.5990   16.6148 C   0  0
   97.2279   -5.2185   15.4050 C   0  0
   92.9209   -5.3576   13.4538 C   0  0
   92.0374   -4.3322   13.8110 C   0  0
   90.8973   -4.6164   14.5691 C   0  0
   90.6364   -5.9287   14.9725 C   0  0
   89.4983   -6.2218   15.7291 C   0  0
   89.2427   -7.5391   16.1255 C   0  0
   90.1238   -8.5656   15.7669 C   0  0
   91.2656   -8.2798   15.0117 C   0  0
   91.5274   -6.9660   14.6121 C   0  0
   92.6654   -6.6735   13.8564 C   0  0
   95.7728   -5.4493   13.4199 N   0  0
   97.6736    0.1765   23.6835 N   0  0
   97.5305   -1.6250   25.2886 N   0  0
   99.1363   -3.3646   25.3614 N   0  0
   97.0485   -2.9156   18.3156 O   0  0
   97.4193   -2.5242   21.2640 O   0  0
   99.1628   -1.3417   20.3097 O   0  0
  101.2944   -1.1244   22.4489 O   0  0
   97.4106   -3.2837   26.8438 O   0  0
  100.8306   -3.3983   23.8434 O   0  0
   94.4202   -3.5352   12.1874 O   0  0
   94.3021   -5.7763   11.2259 O   0  0
   94.3586   -5.0015   12.5135 S   0  0
  1 28  1  0
  3  4  1  0
  5 32  1  0
  5 16  1  0
  6 32  1  0
  6  7  1  0
  7 34  1  0
  8 34  1  0
  8  9  1  0
  9 10  1  0
 11 29  1  0
 11 30  1  0
 12 30  1  0
 13 31  1  0
 14 31  1  0
 15 10  1  0
 17  2  1  0
 19 20  1  0
 21 22  1  0
 23 24  1  0
 25 26  1  0
 26 21  1  0
 27 18  1  0
 28  2  1  0
 30 13  1  0
 31 15  1  0
 40 28  1  0
 40 18  1  0
  2  3  2  0
  4  5  2  0
  7 33  2  0
  9 35  2  0
 10 11  2  0
 13 36  2  0
 15 37  2  0
 16 17  2  0
 18 19  2  0
 20 21  2  0
 22 23  2  0
 24 25  2  0
 26 27  2  0
 40 38  2  0
 40 39  2  0
M  END
> <Name>
CSC028081422 CHEMBL1525986 MCULE-9945693343 MolPort-005-820-636 PubChem-2366036 ZINC000003248873

> <rmsd>
0.412688792

$$$$
CSC027663425 MCULE-9880487915 MolPort-039-008-467 PubChem-119053215 ZINC000241139497
  SciTegic06052412183D

 37 41  0  0  0  0            999 V2000
   96.2673   -4.3472   27.3231 C   0  0
   97.2150   -3.2610   25.3134 C   0  0
   98.1739   -2.4054   24.7741 C   0  0
   98.2026   -2.1584   23.4015 C   0  0
   97.2773   -2.7585   22.5396 C   0  0
   96.5528   -2.9439   20.1441 C   0  0
   96.2959   -3.6325   23.0787 C   0  0
   94.2817   -5.1699   22.6139 C   0  0
   93.3829   -5.7254   21.5869 C   0  0
   93.5471   -5.3774   20.2393 C   0  0
   92.6950   -5.9040   19.2653 C   0  0
   91.6660   -6.7869   19.6239 C   0  0
   90.7670   -7.1244   17.2381 C   0  0
   89.7718   -7.5899   15.1214 C   0  0
   88.7133   -8.3351   14.3851 C   0  0
   88.8401   -8.6629   13.0248 C   0  0
   87.8425   -9.3890   12.3685 C   0  0
   86.7075   -9.8047   13.0676 C   0  0
   86.5726   -9.4971   14.4231 C   0  0
   87.5715   -8.7706   15.0774 C   0  0
   90.7049   -6.7245   14.5002 C   0  0
   90.7005   -6.4552   13.1225 C   0  0
   91.6405   -5.5863   12.5634 C   0  0
   92.5944   -4.9704   13.3762 C   0  0
   92.6062   -5.2182   14.7504 C   0  0
   91.6667   -6.0855   15.3155 C   0  0
   91.5026   -7.1339   20.9688 C   0  0
   92.3540   -6.6080   21.9446 C   0  0
   96.2828   -3.8687   24.4623 C   0  0
   97.2092   -3.4906   26.6919 O   0  0
   97.3916   -2.4442   21.1757 O   0  0
   94.1232   -5.4907   23.8232 O   0  0
   95.3300   -4.2677   22.2264 N   0  0
   90.7706   -7.3494   18.6543 N   0  0
   89.8355   -7.7494   16.4733 N   0  0
   91.6751   -6.3016   16.6534 N   0  0
   91.6200   -5.2425   10.6899 Br  0  0
  1 30  1  0
  2 30  1  0
  3  4  1  0
  5 31  1  0
  5  7  1  0
  6 31  1  0
  7 33  1  0
  8  9  1  0
 10 11  1  0
 12 34  1  0
 12 27  1  0
 13 36  1  0
 14 35  1  0
 14 15  1  0
 16 17  1  0
 18 19  1  0
 20 15  1  0
 21 22  1  0
 23 37  1  0
 23 24  1  0
 25 26  1  0
 26 21  1  0
 28  9  1  0
 29  2  1  0
 33  8  1  0
 34 13  1  0
  2  3  2  0
  4  5  2  0
  7 29  2  0
  8 32  2  0
  9 10  2  0
 11 12  2  0
 13 35  2  0
 14 21  2  0
 15 16  2  0
 17 18  2  0
 19 20  2  0
 22 23  2  0
 24 25  2  0
 26 36  2  0
 27 28  2  0
M  END
> <Name>
CSC027663425 MCULE-9880487915 MolPort-039-008-467 PubChem-119053215 ZINC000241139497

> <rmsd>
0.395047575

$$$$
CSC096706825 MCULE-9321036307
  SciTegic06052412183D

 29 32  0  0  0  0            999 V2000
   88.2481   -8.7244   16.4382 C   0  0
   89.3865   -7.8277   16.1075 C   0  0
   90.1217   -7.2337   17.1316 C   0  0
   91.2023   -6.3889   16.8376 C   0  0
   91.9445   -5.7948   17.9828 C   0  0
   94.0236   -4.5160   18.7852 C   0  0
   93.6369   -4.4591   20.1324 C   0  0
   94.4609   -3.8440   21.0787 C   0  0
   95.6833   -3.2771   20.6920 C   0  0
   96.0662   -3.3310   19.3445 C   0  0
   95.2402   -3.9454   18.3989 C   0  0
   96.5531   -2.6307   21.6899 C   0  0
   96.9748   -1.9737   24.1027 C   0  0
   98.1621   -2.8876   24.4284 C   0  0
   97.6871   -4.0857   25.2540 C   0  0
   95.8694   -3.0399   26.0849 C   0  0
   96.1313   -1.7198   25.3544 C   0  0
   91.5204   -6.1514   15.4750 C   0  0
   92.5694   -5.3053   15.0806 C   0  0
   92.8499   -5.0946   13.7285 C   0  0
   92.0825   -5.7262   12.7484 C   0  0
   91.0309   -6.5669   13.1181 C   0  0
   90.7433   -6.7815   14.4695 C   0  0
   91.4660   -5.9016   19.1454 O   0  0
   97.6570   -2.1314   21.3367 O   0  0
   97.0895   -3.6387   26.4462 O   0  0
   93.2038   -5.1342   17.7843 N   0  0
   96.1462   -2.5670   23.0604 N   0  0
   89.7101   -7.5935   14.8106 N   0  0
  1  2  1  0
  2 29  1  0
  3  4  1  0
  4  5  1  0
  5 27  1  0
  7  8  1  0
  9 10  1  0
  9 12  1  0
 11  6  1  0
 12 28  1  0
 13 28  1  0
 13 14  1  0
 14 15  1  0
 15 26  1  0
 16 26  1  0
 16 17  1  0
 17 13  1  0
 18 19  1  0
 20 21  1  0
 22 23  1  0
 23 18  1  0
 27  6  1  0
  2  3  2  0
  4 18  2  0
  5 24  2  0
  6  7  2  0
  8  9  2  0
 10 11  2  0
 12 25  2  0
 19 20  2  0
 21 22  2  0
 23 29  2  0
M  END
> <Name>
CSC096706825 MCULE-9321036307

> <rmsd>
0.378532976

$$$$
CSC084268163
  SciTegic06052412183D

 28 30  0  0  0  0            999 V2000
   95.7359   -1.7698   26.8554 N   0  0
   96.1154   -3.7561   22.7641 N   0  0
   94.5487   -6.3269   16.9511 N   0  0
   91.7314   -7.6448   15.9115 N   0  0
   96.4203   -2.9278   26.3921 C   0  0
   95.9393   -3.6410   25.1784 C   0  0
   96.5912   -3.0530   23.9432 C   0  0
   96.5603   -3.4174   21.4482 C   0  0
   96.0494   -4.1601   20.2827 C   0  0
   96.4786   -3.8337   18.9888 C   0  0
   95.9928   -4.5394   17.8847 C   0  0
   95.0711   -5.5818   18.0591 C   0  0
   94.8640   -6.1389   15.5654 C   0  0
   94.1854   -6.9832   14.5417 C   0  0
   92.8560   -6.4003   14.1813 C   0  0
   91.6895   -6.7458   14.8881 C   0  0
   90.6139   -7.9901   16.6062 C   0  0
   89.3794   -7.4227   16.2806 C   0  0
   89.3033   -6.4992   15.2367 C   0  0
   90.4566   -6.1532   14.5322 C   0  0
   90.3968   -5.2295   13.4867 C   0  0
   91.5592   -4.8881   12.7908 C   0  0
   92.7825   -5.4690   13.1381 C   0  0
   94.6429   -5.9071   19.3499 C   0  0
   95.1279   -5.2021   20.4550 C   0  0
   97.4504   -3.3304   26.9925 O   0  0
   97.3908   -2.4815   21.2857 O   0  0
   95.6809   -5.2549   15.1943 O   0  0
  1  5  1  0
  2  8  1  0
  3 13  1  0
  6  5  1  0
  6  7  1  0
  7  2  1  0
  8  9  1  0
 10 11  1  0
 12  3  1  0
 12 24  1  0
 14 13  1  0
 14 15  1  0
 15 16  1  0
 17  4  1  0
 18 19  1  0
 20 21  1  0
 20 16  1  0
 22 23  1  0
 25  9  1  0
  5 26  2  0
  8 27  2  0
  9 10  2  0
 11 12  2  0
 13 28  2  0
 16  4  2  0
 17 18  2  0
 19 20  2  0
 21 22  2  0
 23 15  2  0
 24 25  2  0
M  END
> <Name>
CSC084268163

> <rmsd>
0.412819356

$$$$
CSC026449240 MCULE-5707917682 MolPort-005-833-889 PubChem-4802048
  SciTegic06052412183D

 37 41  0  0  0  0            999 V2000
   95.8786   -5.2983   28.2277 C   0  0
   96.3179   -3.8516   28.3678 C   0  0
   96.8033   -3.2799   25.9964 C   0  0
   95.4512   -3.3336   25.6244 C   0  0
   95.0767   -3.1074   24.2971 C   0  0
   96.0438   -2.8219   23.3205 C   0  0
   96.4929   -2.3182   20.8514 C   0  0
   95.7605   -2.1352   19.5850 C   0  0
   94.2936   -2.2762   20.0005 C   0  0
   93.6154   -3.3272   19.1722 C   0  0
   92.7014   -3.8812   15.5531 C   0  0
   92.0406   -4.8975   14.6906 C   0  0
   91.3233   -6.0155   15.1872 C   0  0
   90.7374   -6.9179   14.2644 C   0  0
   90.0199   -8.0280   14.7217 C   0  0
   89.8757   -8.2562   16.0921 C   0  0
   90.4443   -7.3724   17.0110 C   0  0
   91.1598   -6.2597   16.5610 C   0  0
   91.5423   -5.6439   12.4228 C   0  0
   91.6519   -5.4647   10.9589 C   0  0
   91.0506   -6.3812   10.0850 C   0  0
   91.8326   -5.1723    8.1958 C   0  0
   92.4462   -4.2321    9.0242 C   0  0
   92.3534   -4.3815   10.4090 C   0  0
   92.1336   -4.7289   13.3017 C   0  0
   94.2638   -2.5989   21.5059 C   0  0
   97.3937   -2.7676   23.7001 C   0  0
   97.7695   -2.9936   25.0275 C   0  0
   97.2128   -3.5002   27.3165 O   0  0
   97.7473   -2.2434   20.9363 O   0  0
   93.1643   -2.8297   15.0314 O   0  0
   93.1702   -4.3824   19.7021 O   0  0
   95.6445   -2.5898   21.9559 N   0  0
   93.4679   -3.1199   17.7683 N   0  0
   92.8438   -4.0786   16.9603 N   0  0
   90.8637   -6.7093   12.9286 N   0  0
   91.1517   -6.2177    8.7382 N   0  0
  1  2  1  0
  2 29  1  0
  3 29  1  0
  4  5  1  0
  6 33  1  0
  6 27  1  0
  8  7  1  0
  8  9  1  0
  9 10  1  0
  9 26  1  0
 10 34  1  0
 11 12  1  0
 12 13  1  0
 13 14  1  0
 14 36  1  0
 15 16  1  0
 17 18  1  0
 19 20  1  0
 19 25  1  0
 21 37  1  0
 22 23  1  0
 24 20  1  0
 26 33  1  0
 28  3  1  0
 33  7  1  0
 34 35  1  0
 35 11  1  0
  3  4  2  0
  5  6  2  0
  7 30  2  0
 10 32  2  0
 11 31  2  0
 14 15  2  0
 16 17  2  0
 18 13  2  0
 19 36  2  0
 20 21  2  0
 22 37  2  0
 23 24  2  0
 25 12  2  0
 27 28  2  0
M  END
> <Name>
CSC026449240 MCULE-5707917682 MolPort-005-833-889 PubChem-4802048

> <rmsd>
0.39561221

$$$$
CSC028093673 MCULE-8769668213 MolPort-044-414-079 PubChem-4187681
  SciTegic06052412183D

 40 43  0  0  0  0            999 V2000
   91.3793   -8.5420   21.1562 C   0  0
   92.8461   -8.5758   20.7811 C   0  0
   93.9913   -6.5903   19.8428 C   0  0
   94.1509   -5.7099   18.7620 C   0  0
   93.4732   -5.2143   16.3964 C   0  0
   92.5218   -5.4935   15.2874 C   0  0
   91.4403   -6.4093   15.3894 C   0  0
   90.5862   -6.6094   14.2727 C   0  0
   89.5143   -7.5034   14.3537 C   0  0
   89.2745   -8.2076   15.5349 C   0  0
   90.1053   -8.0202   16.6407 C   0  0
   91.1783   -7.1285   16.5673 C   0  0
   90.8059   -5.9136   13.0843 C   0  0
   91.8655   -5.0152   12.9856 C   0  0
   92.7113   -4.8088   14.0754 C   0  0
   95.0540   -4.6418   18.8752 C   0  0
   95.7899   -4.4549   20.0464 C   0  0
   95.6360   -5.3299   21.1289 C   0  0
   96.3897   -5.1953   22.3939 C   0  0
   97.2572   -4.2367   22.7616 C   0  0
   97.9006   -4.3232   24.0876 C   0  0
   99.3479   -3.1416   25.8208 C   0  0
   98.5208   -3.2312   26.9609 C   0  0
   96.2603   -3.5591   27.9223 C   0  0
   99.0849   -3.0456   28.2342 C   0  0
  100.4450   -2.7494   28.3839 C   0  0
  101.2455   -2.6221   27.2420 C   0  0
  100.6981   -2.8117   25.9723 C   0  0
   97.5778   -3.1142   21.9104 C   0  0
   94.7369   -6.3938   21.0169 C   0  0
   93.0874   -7.6524   19.7284 O   0  0
   93.3858   -5.9252   17.6039 O   0  0
   94.3723   -4.3440   16.2311 O   0  0
   97.1492   -3.4699   26.8163 O   0  0
  100.2139   -2.7011   30.8101 O   0  5
  102.2130   -2.2857   29.8311 O   0  0
   97.6619   -5.3049   24.8445 O   0  0
   98.8387   -3.3173   24.4925 N   0  0
  101.0039   -2.5650   29.6916 N   0  3
   97.8382   -2.2129   21.2324 N   0  0
  1  2  1  0
  2 31  1  0
  3 31  1  0
  4 32  1  0
  4 16  1  0
  5 32  1  0
  5  6  1  0
  6  7  1  0
  7  8  1  0
  8 13  1  0
  9 10  1  0
 11 12  1  0
 14 15  1  0
 17 18  1  0
 18 19  1  0
 20 21  1  0
 20 29  1  0
 21 38  1  0
 23 34  1  0
 23 25  1  0
 24 34  1  0
 26 39  1  0
 26 27  1  0
 28 22  1  0
 30  3  1  0
 38 22  1  0
 39 35  1  0
  3  4  2  0
  5 33  2  0
  8  9  2  0
 10 11  2  0
 12  7  2  0
 13 14  2  0
 15  6  2  0
 16 17  2  0
 18 30  2  0
 19 20  2  0
 21 37  2  0
 22 23  2  0
 25 26  2  0
 27 28  2  0
 39 36  2  0
 29 40  3  0
M  CHG  2  35  -1  39   1
M  END
> <Name>
CSC028093673 MCULE-8769668213 MolPort-044-414-079 PubChem-4187681

> <rmsd>
0.292897195

$$$$
CSC026975898 MCULE-7210172509 MolPort-005-749-199 PubChem-135879220 ZINC000012773461 ZINC12773461
  SciTegic06052412183D

 35 38  0  0  0  0            999 V2000
   93.8488   -7.8675   18.5500 O   0  0
   89.1759   -8.2743   13.8973 O   0  0
   95.5990   -0.9720   21.1393 O   0  0
   97.5675   -2.4171   20.9725 O   0  0
   96.3213   -4.1495   29.4601 O   0  0
   92.7844   -7.8066   19.2212 C   0  0
   91.6882   -8.7764   18.9346 C   0  0
   90.4277   -8.0669   18.4546 C   0  0
   90.5647   -7.5878   17.0474 C   0  0
   91.5436   -6.1167   15.4782 C   0  0
   92.4353   -5.0814   15.1896 C   0  0
   92.5625   -4.6159   13.8772 C   0  0
   91.7984   -5.1818   12.8516 C   0  0
   90.9036   -6.2176   13.1340 C   0  0
   90.7725   -6.6910   14.4472 C   0  0
   89.8915   -7.7277   14.7791 C   0  0
   93.5019   -5.7486   20.5682 C   0  0
   94.6741   -5.5162   19.8332 C   0  0
   95.5112   -4.4459   20.1594 C   0  0
   95.1827   -3.5973   21.2212 C   0  0
   94.0133   -3.8224   21.9540 C   0  0
   93.1774   -4.8941   21.6272 C   0  0
   97.0969   -3.3783   23.7785 C   0  0
   98.2651   -3.0510   24.6971 C   0  0
   97.7823   -2.4758   26.0205 C   0  0
   98.0414   -4.0010   27.7856 C   0  0
   97.3083   -4.8951   28.7901 C   0  0
   95.3624   -3.7758   28.5004 C   0  0
   95.9921   -2.8186   27.4863 C   0  0
   91.4207   -6.5749   16.7493 N   0  0
   89.8065   -8.1484   16.0679 N   0  0
   92.6093   -6.8252   20.2524 N   0  0
   96.4410   -2.1529   23.3469 N   0  0
   97.0901   -3.4936   26.7944 N   0  0
   96.2265   -2.2455   21.6303 S   0  0
  6 32  1  0
  7  6  1  0
  7  8  1  0
  8  9  1  0
 10 30  1  0
 11 12  1  0
 13 14  1  0
 15 16  1  0
 15 10  1  0
 16 31  1  0
 18 19  1  0
 20 21  1  0
 22 17  1  0
 23 33  1  0
 23 24  1  0
 24 25  1  0
 25 34  1  0
 26 34  1  0
 26 27  1  0
 27  5  1  0
 28  5  1  0
 28 29  1  0
 29 34  1  0
 31  9  1  0
 32 17  1  0
 35 20  1  0
 35 33  1  0
  6  1  2  0
  9 30  2  0
 10 11  2  0
 12 13  2  0
 14 15  2  0
 16  2  2  0
 17 18  2  0
 19 20  2  0
 21 22  2  0
 35  3  2  0
 35  4  2  0
M  END
> <Name>
CSC026975898 MCULE-7210172509 MolPort-005-749-199 PubChem-135879220 ZINC000012773461 ZINC12773461

> <rmsd>
0.273799658

$$$$
CSC026525655 MCULE-3594464770 MolPort-005-827-986 PubChem-25684138 ZINC000013037960
  SciTegic06052412183D

 34 38  0  0  0  0            999 V2000
   94.2971   -6.2003   17.0153 O   0  0
   96.7419   -0.5697   27.1160 O   0  0
   97.0472   -3.5565   26.9782 O   0  0
   97.6505   -2.3261   20.8126 O   0  0
   99.1026   -3.9518   21.9293 O   0  0
   93.5459   -5.6968   17.8927 C   0  0
   91.4139   -6.5477   16.8013 C   0  0
   91.5451   -6.1033   15.4646 C   0  0
   90.7897   -6.7344   14.4436 C   0  0
   90.9040   -6.3066   13.1178 C   0  0
   91.7514   -5.2442   12.7945 C   0  0
   92.4829   -4.6017   13.7962 C   0  0
   92.3769   -5.0258   15.1235 C   0  0
   89.9096   -7.7703   14.7609 C   0  0
   89.7626   -8.1821   16.0858 C   0  0
   90.5044   -7.5687   17.0975 C   0  0
   94.1414   -4.8947   18.9970 C   0  0
   94.1377   -4.9647   21.3872 C   0  0
   95.2301   -3.9164   21.6216 C   0  0
   97.4614   -2.5407   23.4671 C   0  0
   97.3763   -3.3008   24.6344 C   0  0
   97.1661   -2.6962   25.8793 C   0  0
   97.0208   -1.2821   25.9439 C   0  0
   97.2826   -0.8619   28.3950 C   0  0
   96.7347   -2.1608   28.9259 C   0  0
   97.5140   -3.2838   28.2913 C   0  0
   97.0905   -0.5363   24.7610 C   0  0
   97.3154   -1.1558   23.5321 C   0  0
   96.7912   -5.1945   20.3957 C   0  0
   95.7427   -6.2787   20.1278 C   0  0
   92.1382   -5.9540   17.8876 N   0  0
   94.3735   -5.7426   20.1630 N   0  0
   96.5339   -4.5697   21.6895 N   0  0
   97.7313   -3.3360   21.9255 S   0  0
  6 31  1  0
  7  8  1  0
  8  9  1  0
  9 14  1  0
 10 11  1  0
 12 13  1  0
 15 16  1  0
 17  6  1  0
 17 32  1  0
 18 32  1  0
 18 19  1  0
 19 33  1  0
 21 22  1  0
 22  3  1  0
 23  2  1  0
 23 27  1  0
 24  2  1  0
 24 25  1  0
 25 26  1  0
 26  3  1  0
 28 20  1  0
 29 33  1  0
 29 30  1  0
 30 32  1  0
 31  7  1  0
 34 33  1  0
 34 20  1  0
  6  1  2  0
  9 10  2  0
 11 12  2  0
 13  8  2  0
 14 15  2  0
 16  7  2  0
 20 21  2  0
 22 23  2  0
 27 28  2  0
 34  4  2  0
 34  5  2  0
M  END
> <Name>
CSC026525655 MCULE-3594464770 MolPort-005-827-986 PubChem-25684138 ZINC000013037960

> <rmsd>
0.273636341

$$$$
CSC072072990
  SciTegic06052412183D

 29 32  0  0  0  0            999 V2000
   97.4717   -4.2103   27.8477 C   0  0
   97.5586   -2.4852   26.4758 C   0  0
   97.0450   -1.8363   25.2046 C   0  0
   96.7810   -1.9790   23.0180 C   0  0
   97.0452   -2.7458   21.7700 C   0  0
   97.0822   -4.2356   20.3196 C   0  0
   96.8584   -5.4991   19.5668 C   0  0
   95.6021   -5.3790   18.7296 C   0  0
   95.3833   -6.6679   17.9595 C   0  0
   93.0245   -7.3630   17.4789 C   0  0
   91.8099   -7.2778   16.6424 C   0  0
   90.6719   -8.0301   16.9655 C   0  0
   89.5204   -7.9483   16.1787 C   0  0
   89.4924   -7.1134   15.0598 C   0  0
   90.6162   -6.3560   14.7218 C   0  0
   90.5808   -5.5244   13.6004 C   0  0
   91.7010   -4.7654   13.2551 C   0  0
   92.8620   -4.8341   14.0291 C   0  0
   92.9166   -5.6628   15.1584 C   0  0
   94.1461   -5.7344   15.9740 C   0  0
   91.7884   -6.4323   15.5130 C   0  0
   96.8472   -3.6582   26.7304 O   0  0
   97.3483   -2.6413   24.1064 O   0  0
   97.7512   -3.2103   19.8543 O   0  0
   93.0478   -8.1236   18.4856 O   0  0
   95.1657   -5.0694   15.6415 O   0  0
   97.7523   -2.2560   20.7343 N   0  0
   94.1764   -6.5719   17.1435 N   0  0
   96.5945   -3.9987   21.5523 N   0  0
  1 22  1  0
  2 22  1  0
  2  3  1  0
  3 23  1  0
  4 23  1  0
  4  5  1  0
  5 29  1  0
  6 24  1  0
  7  6  1  0
  7  8  1  0
  8  9  1  0
  9 28  1  0
 10 11  1  0
 12 13  1  0
 14 15  1  0
 16 17  1  0
 18 19  1  0
 19 20  1  0
 20 28  1  0
 21 11  1  0
 21 15  1  0
 27 24  1  0
 28 10  1  0
  5 27  2  0
  6 29  2  0
 10 25  2  0
 11 12  2  0
 13 14  2  0
 15 16  2  0
 17 18  2  0
 19 21  2  0
 20 26  2  0
M  END
> <Name>
CSC072072990

> <rmsd>
0.359677643

$$$$
CSC081000136
  SciTegic06052412183D

 29 32  0  0  0  0            999 V2000
   92.7151   -4.1996   12.4590 C   0  0
   92.1021   -5.1199   13.4565 C   0  0
   90.6262   -6.0478   14.6692 C   0  0
   89.4271   -6.4024   15.2842 C   0  0
   89.4709   -7.4152   16.2607 C   0  0
   90.6936   -8.0399   16.5952 C   0  0
   91.8896   -7.6621   15.9571 C   0  0
   91.8119   -6.6585   14.9931 C   0  0
   92.7805   -6.0736   14.2093 C   0  0
   94.2503   -6.3459   14.2241 C   0  0
   94.9103   -5.5475   15.2944 C   0  0
   95.5224   -5.4305   17.7805 C   0  0
   95.5467   -6.1267   18.9929 C   0  0
   96.0637   -5.5254   20.1439 C   0  0
   96.5630   -4.2165   20.0969 C   0  0
   96.5361   -3.5168   18.8824 C   0  0
   96.0196   -4.1196   17.7322 C   0  0
   97.1109   -3.5848   21.3100 C   0  0
   97.6617   -3.7430   23.7790 C   0  0
   96.6605   -2.7361   24.3478 C   0  0
   97.1094   -2.3256   25.7506 C   0  0
   98.2466   -4.2378   26.1459 C   0  0
   97.9215   -4.8600   24.7872 C   0  0
   90.8132   -5.1308   13.7486 O   0  0
   95.3662   -4.4047   15.0229 O   0  0
   97.5517   -2.4033   21.2622 O   0  0
   97.1620   -3.4565   26.5867 O   0  0
   94.9838   -6.0820   16.6223 N   0  0
   97.1505   -4.3139   22.5418 N   0  0
  1  2  1  0
  2 24  1  0
  3 24  1  0
  4  5  1  0
  6  7  1  0
  8  9  1  0
  8  3  1  0
 10  9  1  0
 10 11  1  0
 11 28  1  0
 13 14  1  0
 15 16  1  0
 15 18  1  0
 17 12  1  0
 18 29  1  0
 19 29  1  0
 19 20  1  0
 20 21  1  0
 21 27  1  0
 22 27  1  0
 22 23  1  0
 23 19  1  0
 28 12  1  0
  3  4  2  0
  5  6  2  0
  7  8  2  0
  9  2  2  0
 11 25  2  0
 12 13  2  0
 14 15  2  0
 16 17  2  0
 18 26  2  0
M  END
> <Name>
CSC081000136

> <rmsd>
0.388212651

$$$$
CSC098939129
  SciTegic06052412183D

 29 32  0  0  0  0            999 V2000
   96.2186   -4.8608   25.3266 C   0  0
   96.9868   -3.6522   25.7435 C   0  0
   97.5600   -2.7311   24.7432 C   0  0
   98.2754   -1.5978   25.1554 C   0  0
   98.8195   -0.7226   24.2117 C   0  0
   98.6518   -0.9727   22.8474 C   0  0
   97.9397   -2.0965   22.4184 C   0  0
   97.0215   -3.3931   20.5119 C   0  0
   95.5954   -2.9412   20.2466 C   0  0
   94.8633   -4.0274   19.4786 C   0  0
   92.5948   -4.6593   19.0189 C   0  0
   92.9230   -5.6900   17.9354 C   0  0
   94.0050   -3.9029   16.6107 C   0  0
   93.6630   -2.9041   17.7203 C   0  0
   92.2814   -5.3678   15.4887 C   0  0
   91.3388   -6.4159   15.4814 C   0  0
   90.9442   -7.2894   16.4732 C   0  0
   89.9824   -8.0984   15.8708 C   0  0
   90.6180   -6.7294   14.3593 C   0  0
   90.7720   -6.0351   13.1629 C   0  0
   91.7015   -4.9850   13.1310 C   0  0
   92.4468   -4.6557   14.2799 C   0  0
   97.3980   -2.9741   23.3714 C   0  0
   97.1400   -3.4271   26.9737 O   0  0
   97.7918   -2.3215   21.0459 O   0  0
   94.9391   -2.6978   21.4541 O   0  0
   93.5552   -3.5456   19.0410 N   0  0
   93.0573   -5.0101   16.6536 N   0  0
   89.7830   -7.7552   14.5763 N   0  0
  1  2  1  0
  2  3  1  0
  4  5  1  0
  6  7  1  0
  7 25  1  0
  8 25  1  0
  8  9  1  0
  9 26  1  0
  9 10  1  0
 10 27  1  0
 11 27  1  0
 11 12  1  0
 12 28  1  0
 13 28  1  0
 13 14  1  0
 14 27  1  0
 16 17  1  0
 18 29  1  0
 19 16  1  0
 20 21  1  0
 22 15  1  0
 23  3  1  0
 28 15  1  0
 29 19  1  0
  2 24  2  0
  3  4  2  0
  5  6  2  0
  7 23  2  0
 15 16  2  0
 17 18  2  0
 19 20  2  0
 21 22  2  0
M  END
> <Name>
CSC098939129

> <rmsd>
0.38744235

$$$$
CSC078340478
  SciTegic06052412183D

 28 30  0  0  0  0            999 V2000
   96.3970   -3.0885   28.1054 C   0  0
   97.7168   -2.3680   26.4897 C   0  0
   98.5279   -2.7242   25.2584 C   0  0
   98.5310   -3.1218   23.0864 C   0  0
   97.7402   -3.2026   21.8285 C   0  0
   95.9445   -4.4257   20.4734 C   0  0
   96.8068   -4.6756   19.2348 C   0  0
   95.9233   -4.8665   18.0050 C   0  0
   95.0248   -3.6460   17.8037 C   0  0
   94.1541   -3.4149   19.0384 C   0  0
   95.0301   -3.2156   20.2719 C   0  0
   94.1718   -3.8245   16.5927 C   0  0
   92.3582   -5.2008   15.4309 C   0  0
   91.4959   -6.3089   15.4942 C   0  0
   91.4648   -7.1508   16.6155 C   0  0
   90.5961   -8.2458   16.6488 C   0  0
   89.7527   -8.5062   15.5644 C   0  0
   89.7747   -7.6730   14.4418 C   0  0
   90.6408   -6.5765   14.4010 C   0  0
   90.6618   -5.7444   13.2828 C   0  0
   91.5318   -4.6541   13.2618 C   0  0
   96.9351   -3.4594   26.8741 O   0  0
   97.6754   -2.9185   24.1696 O   0  0
   97.9305   -2.3494   20.9211 O   0  0
   94.2902   -3.0137   15.6364 O   0  0
   96.7786   -4.2517   21.6590 N   0  0
   93.2369   -4.9110   16.5285 N   0  0
   92.3495   -4.4093   14.3208 N   0  0
  1 22  1  0
  2 22  1  0
  2  3  1  0
  3 23  1  0
  4 23  1  0
  4  5  1  0
  5 26  1  0
  6 26  1  0
  6  7  1  0
  7  8  1  0
  8  9  1  0
  9 10  1  0
  9 12  1  0
 10 11  1  0
 11  6  1  0
 12 27  1  0
 13 14  1  0
 15 16  1  0
 17 18  1  0
 19 20  1  0
 19 14  1  0
 21 28  1  0
 27 13  1  0
  5 24  2  0
 12 25  2  0
 13 28  2  0
 14 15  2  0
 16 17  2  0
 18 19  2  0
 20 21  2  0
M  END
> <Name>
CSC078340478

> <rmsd>
0.398006827

$$$$
CSC026247127 MCULE-1373823961 MolPort-004-145-117 PubChem-16281175 ZINC000009982978 ZINC09982978
  SciTegic06052412183D

 34 37  0  0  0  0            999 V2000
   97.1930   -2.2889   27.7150 C   0  0
   97.0522   -3.7247   25.7190 C   0  0
   96.7735   -4.9787   25.1708 C   0  0
   96.8929   -5.1652   23.7928 C   0  0
   97.2875   -4.1065   22.9721 C   0  0
   97.7871   -3.3622   20.5708 C   0  0
   97.8171   -3.7641   19.1399 C   0  0
   96.2956   -3.7271   17.1911 C   0  0
   95.0633   -3.3390   16.6588 C   0  0
   94.7322   -3.6595   15.3391 C   0  0
   95.6278   -4.3755   14.5283 C   0  0
   96.8669   -4.7590   15.0681 C   0  0
   97.1994   -4.4381   16.3866 C   0  0
   96.2239   -5.4454   12.3296 C   0  0
   92.4435   -5.0218   13.4064 C   0  0
   91.1771   -4.4248   13.4274 C   0  0
   90.1343   -5.0069   14.1547 C   0  0
   90.3550   -6.1902   14.8642 C   0  0
   89.3179   -6.7779   15.5941 C   0  0
   89.5467   -7.9623   16.3019 C   0  0
   90.8114   -8.5615   16.2817 C   0  0
   91.8541   -7.9794   15.5530 C   0  0
   91.6332   -6.7965   14.8430 C   0  0
   92.6686   -6.2097   14.1115 C   0  0
   97.5590   -2.8637   23.5603 C   0  0
   96.9295   -3.5395   27.0965 O   0  0
   98.0754   -2.1778   20.8874 O   0  0
   96.5925   -3.4014   18.5170 O   0  0
   93.6031   -2.7915   12.4976 O   0  0
   93.6626   -4.7760   11.0648 O   0  0
   97.3979   -4.3249   21.5593 N   0  0
   95.2821   -4.7192   13.1705 N   0  0
   97.4372   -2.7003   24.9047 N   0  0
   93.7436   -4.2880   12.4839 S   0  0
  1 26  1  0
  2 26  1  0
  2 33  1  0
  3  4  1  0
  5 31  1  0
  5 25  1  0
  7  6  1  0
  7 28  1  0
  8 28  1  0
  9 10  1  0
 11 12  1  0
 11 32  1  0
 13  8  1  0
 14 32  1  0
 16 17  1  0
 18 19  1  0
 20 21  1  0
 22 23  1  0
 23 18  1  0
 24 15  1  0
 31  6  1  0
 34 32  1  0
 34 15  1  0
  2  3  2  0
  4  5  2  0
  6 27  2  0
  8  9  2  0
 10 11  2  0
 12 13  2  0
 15 16  2  0
 17 18  2  0
 19 20  2  0
 21 22  2  0
 23 24  2  0
 25 33  2  0
 34 29  2  0
 34 30  2  0
M  END
> <Name>
CSC026247127 MCULE-1373823961 MolPort-004-145-117 PubChem-16281175 ZINC000009982978 ZINC09982978

> <rmsd>
0.405617803

$$$$
CSC027030097 MCULE-9965215750 MolPort-005-785-768 PubChem-17552842 ZINC000024529383
  SciTegic06052412183D

 33 36  0  0  0  0            999 V2000
   91.9505   -6.4886   18.9325 O   0  0
   89.1203   -8.4863   13.8519 O   0  0
   97.4406   -5.4905   28.7227 O   0  0
   96.0962   -0.5720   21.5369 O   0  0
   97.8234   -2.3098   21.3264 O   0  0
   92.1074   -6.0088   17.7770 C   0  0
   91.3458   -6.6053   16.6482 C   0  0
   91.4182   -6.1501   15.3091 C   0  0
   90.6409   -6.8046   14.3238 C   0  0
   90.6927   -6.3743   12.9891 C   0  0
   91.5075   -5.3016   12.6245 C   0  0
   92.2762   -4.6509   13.5898 C   0  0
   92.2308   -5.0725   14.9203 C   0  0
   89.8270   -7.8779   14.7001 C   0  0
   93.8008   -4.2448   18.5658 C   0  0
   93.7765   -4.6266   19.9157 C   0  0
   94.5633   -3.9540   20.8547 C   0  0
   95.3809   -2.8932   20.4525 C   0  0
   96.8248   -1.8810   24.1660 C   0  0
   98.0153   -2.7301   24.5875 C   0  0
   97.5726   -3.9063   25.4466 C   0  0
   96.0092   -4.2956   27.2054 C   0  0
   96.5126   -5.6639   27.6840 C   0  0
   98.5724   -4.8971   28.1423 C   0  0
   98.2381   -3.4659   27.7022 C   0  0
   95.4097   -2.5099   19.1081 C   0  0
   94.6222   -3.1836   18.1700 C   0  0
   89.7983   -8.2688   15.9972 N   0  0
   90.5275   -7.6570   16.9303 N   0  0
   93.0082   -4.9096   17.5728 N   0  0
   95.9940   -2.6104   23.2193 N   0  0
   97.1149   -3.4395   26.7523 N   0  0
   96.3736   -2.0469   21.6244 S   0  0
  6  7  1  0
  6 30  1  0
  7  8  1  0
  8  9  1  0
  9 14  1  0
 10 11  1  0
 12 13  1  0
 14 28  1  0
 16 17  1  0
 18 26  1  0
 19 31  1  0
 19 20  1  0
 20 21  1  0
 21 32  1  0
 22 32  1  0
 22 23  1  0
 23  3  1  0
 24  3  1  0
 24 25  1  0
 25 32  1  0
 27 15  1  0
 28 29  1  0
 30 15  1  0
 33 18  1  0
 33 31  1  0
  6  1  2  0
  7 29  2  0
  9 10  2  0
 11 12  2  0
 13  8  2  0
 14  2  2  0
 15 16  2  0
 17 18  2  0
 26 27  2  0
 33  4  2  0
 33  5  2  0
M  END
> <Name>
CSC027030097 MCULE-9965215750 MolPort-005-785-768 PubChem-17552842 ZINC000024529383

> <rmsd>
0.331134945

$$$$
CSC027888805 MCULE-4727245004 PubChem-5161323 ZINC000009441152
  SciTegic06052412183D

 33 36  0  0  0  0            999 V2000
   96.8376   -3.6612   26.5844 O   0  5
   89.7987   -5.9662   12.5404 O   0  0
   92.6068   -5.0357   20.3651 O   0  0
   94.8776   -4.7672   26.8348 O   0  0
   95.6853   -4.2060   26.0654 N   0  3
   97.8087   -2.2148   20.9105 N   0  0
   94.6509   -3.8833   20.4789 N   0  0
   92.7069   -5.4676   15.2329 N   0  0
   91.7670   -4.9657   13.1263 N   0  0
   93.8327   -4.0316   13.9488 N   0  0
   94.5153   -4.1823   15.0789 N   0  0
   95.4174   -4.1280   24.6590 C   0  0
   96.3256   -3.4930   23.8025 C   0  0
   96.0746   -3.4114   22.4291 C   0  0
   97.0362   -2.7481   21.5872 C   0  0
   94.9001   -3.9711   21.8919 C   0  0
   93.5212   -4.4073   19.7691 C   0  0
   93.4464   -4.2382   18.2944 C   0  0
   93.8301   -5.0517   15.8540 C   0  0
   92.7443   -4.8168   14.0634 C   0  0
   90.7165   -5.8094   13.3939 C   0  0
   90.6580   -6.5048   14.6252 C   0  0
   91.6981   -6.3162   15.5665 C   0  0
   91.6599   -6.9945   16.7918 C   0  0
   90.5984   -7.8545   17.0844 C   0  0
   89.5704   -8.0430   16.1562 C   0  0
   89.5985   -7.3714   14.9305 C   0  0
   91.8526   -4.2526   11.8543 C   0  0
   92.6004   -5.0718   10.8552 C   0  0
   92.7919   -4.6078    9.6251 C   0  0
   93.9925   -4.6055   22.7535 C   0  0
   94.2477   -4.6837   24.1240 C   0  0
   94.3845   -5.5622   17.4799 S   0  0
  5  1  1  0
  5 12  1  0
  7 17  1  0
  8 20  1  0
  9 21  1  0
 10 11  1  0
 13 14  1  0
 14 15  1  0
 16  7  1  0
 16 31  1  0
 18 17  1  0
 18 33  1  0
 19 33  1  0
 19  8  1  0
 20  9  1  0
 21 22  1  0
 23 24  1  0
 23  8  1  0
 25 26  1  0
 27 22  1  0
 28  9  1  0
 28 29  1  0
 32 12  1  0
  5  4  2  0
 12 13  2  0
 14 16  2  0
 17  3  2  0
 19 11  2  0
 20 10  2  0
 21  2  2  0
 22 23  2  0
 24 25  2  0
 26 27  2  0
 29 30  2  0
 31 32  2  0
 15  6  3  0
M  CHG  2   1  -1   5   1
M  END
> <Name>
CSC027888805 MCULE-4727245004 PubChem-5161323 ZINC000009441152

> <rmsd>
0.350172937

$$$$
CSC093495172
  SciTegic06052412183D

 28 30  0  0  0  0            999 V2000
   97.3314   -4.4880   27.5536 C   0  0
   96.5895   -2.3060   27.2328 C   0  0
   96.5563   -3.8265   25.4594 C   0  0
   97.0940   -3.1794   24.1977 C   0  0
   96.5877   -3.1725   21.7273 C   0  0
   95.7646   -3.6488   20.6017 C   0  0
   96.0288   -3.2144   19.2953 C   0  0
   95.2471   -3.6673   18.2292 C   0  0
   94.1900   -4.5610   18.4541 C   0  0
   93.4725   -4.7263   15.9918 C   0  0
   92.5375   -5.3143   14.9920 C   0  0
   91.4893   -6.2166   15.3121 C   0  0
   91.2340   -6.6446   16.6249 C   0  0
   90.1924   -7.5340   16.8994 C   0  0
   89.3880   -8.0102   15.8630 C   0  0
   89.6236   -7.5981   14.5502 C   0  0
   90.6642   -6.7083   14.2678 C   0  0
   91.8741   -5.4577   12.6587 C   0  0
   92.7108   -4.9475   13.6493 C   0  0
   93.9268   -4.9940   19.7575 C   0  0
   94.7079   -4.5419   20.8248 C   0  0
   97.3308   -3.3876   26.6075 N   0  0
   96.3108   -3.6210   23.0565 N   0  0
   93.3653   -5.0485   17.3869 N   0  0
   90.8780   -6.3189   12.9849 N   0  0
   97.5375   -2.3685   21.5191 O   0  0
   94.3709   -3.9326   15.5983 O   0  0
   92.0605   -5.0836   11.3352 O   0  0
  1 22  1  0
  2 22  1  0
  3 22  1  0
  3  4  1  0
  4 23  1  0
  5  6  1  0
  7  8  1  0
  9 24  1  0
  9 20  1  0
 10 11  1  0
 11 12  1  0
 13 14  1  0
 15 16  1  0
 17 25  1  0
 17 12  1  0
 18 28  1  0
 18 19  1  0
 21  6  1  0
 23  5  1  0
 24 10  1  0
  5 26  2  0
  6  7  2  0
  8  9  2  0
 10 27  2  0
 12 13  2  0
 14 15  2  0
 16 17  2  0
 18 25  2  0
 19 11  2  0
 20 21  2  0
M  END
> <Name>
CSC093495172

> <rmsd>
0.397155792

$$$$
CSC026484153 ChemDiv-2322-1946 MCULE-6744129736 MolPort-002-167-696 PubChem-1355831
  SciTegic06052412183D

 29 32  0  0  0  0            999 V2000
   96.5091   -2.8538   19.3808 C   0  0
   95.8900   -3.1381   18.0815 C   0  0
   93.1557   -5.1109   16.7208 C   0  0
   92.4665   -5.4569   15.4545 C   0  0
   92.8757   -4.9244   14.2081 C   0  0
   92.2010   -5.2742   13.0360 C   0  0
   91.1181   -6.1499   13.0736 C   0  0
   90.6966   -6.6871   14.2878 C   0  0
   89.6087   -7.5645   14.3129 C   0  0
   89.1754   -8.1106   15.5231 C   0  0
   89.8276   -7.7817   16.7133 C   0  0
   90.9159   -6.9052   16.6972 C   0  0
   91.3665   -6.3457   15.4889 C   0  0
   96.9985   -2.8045   21.4808 C   0  0
   97.0233   -3.0229   22.9373 C   0  0
   96.0893   -3.8726   23.5470 C   0  0
   96.1164   -4.0770   24.9294 C   0  0
   97.0756   -3.4362   25.7195 C   0  0
   98.0119   -2.5850   25.1112 C   0  0
   97.9847   -2.3806   23.7290 C   0  0
   98.0142   -3.0519   27.9756 C   0  0
   96.1024   -3.3788   20.5939 C   0  0
   96.3473   -2.6002   17.0374 O   0  0
   93.9493   -4.0467   14.1122 O   0  0
   97.0764   -3.6612   27.0988 O   0  0
   94.7722   -4.0224   18.0005 N   0  0
   94.1664   -4.3077   16.7720 N   0  0
   97.5635   -2.0336   19.5426 N   0  0
   97.8634   -2.0033   20.8292 N   0  0
  1  2  1  0
  1 28  1  0
  2 26  1  0
  3  4  1  0
  5 24  1  0
  5  6  1  0
  7  8  1  0
  9 10  1  0
 11 12  1  0
 13  4  1  0
 13  8  1  0
 14 15  1  0
 14 22  1  0
 16 17  1  0
 18 19  1  0
 18 25  1  0
 20 15  1  0
 21 25  1  0
 26 27  1  0
 28 29  1  0
  2 23  2  0
  3 27  2  0
  4  5  2  0
  6  7  2  0
  8  9  2  0
 10 11  2  0
 12 13  2  0
 14 29  2  0
 15 16  2  0
 17 18  2  0
 19 20  2  0
 22  1  2  0
M  END
> <Name>
CSC026484153 ChemDiv-2322-1946 MCULE-6744129736 MolPort-002-167-696 PubChem-1355831

> <rmsd>
0.346173525

$$$$
CSC065153243
  SciTegic06052412183D

 29 31  0  0  0  0            999 V2000
   93.2890   -6.1362   11.7205 C   0  0
   92.4870   -6.0290   12.9732 C   0  0
   91.8788   -7.1921   13.4825 C   0  0
   91.1337   -7.0769   14.6524 C   0  0
   89.9254   -7.4995   16.3659 C   0  0
   90.2040   -6.1362   16.3961 C   0  0
   89.7980   -5.1712   17.4593 C   0  0
   90.8841   -5.0301   18.4688 C   0  0
   93.1081   -3.8935   19.0471 C   0  0
   93.2976   -4.5818   20.2543 C   0  0
   94.4297   -4.3382   21.0363 C   0  0
   95.3885   -3.4035   20.6224 C   0  0
   95.1978   -2.7166   19.4152 C   0  0
   94.0649   -2.9613   18.6340 C   0  0
   96.5820   -3.1464   21.4471 C   0  0
   97.9249   -3.6289   23.5285 C   0  0
   97.8339   -4.4986   24.7717 C   0  0
   96.8622   -3.9352   25.7543 C   0  0
   90.9855   -5.8822   15.2954 C   0  0
   91.5726   -4.7095   14.8283 C   0  0
   92.3350   -4.7861   13.6481 C   0  0
   92.9724   -3.5412   13.1315 C   0  0
   90.4995   -8.0273   15.2959 O   0  0
   90.8541   -5.7356   19.5118 O   0  0
   97.4406   -2.3022   21.0698 O   0  0
   97.2709   -3.5285   26.8725 O   0  0
   91.9616   -4.1189   18.2163 N   0  0
   96.7678   -3.8527   22.6760 N   0  0
   95.4735   -3.8784   25.4455 N   0  0
  1  2  1  0
  3  4  1  0
  4 23  1  0
  5 23  1  0
  6 19  1  0
  7  6  1  0
  7  8  1  0
  8 27  1  0
 10 11  1  0
 12 13  1  0
 12 15  1  0
 14  9  1  0
 15 28  1  0
 16 28  1  0
 16 17  1  0
 17 18  1  0
 18 29  1  0
 19 20  1  0
 21  2  1  0
 22 21  1  0
 27  9  1  0
  2  3  2  0
  5  6  2  0
  8 24  2  0
  9 10  2  0
 11 12  2  0
 13 14  2  0
 15 25  2  0
 18 26  2  0
 19  4  2  0
 20 21  2  0
M  END
> <Name>
CSC065153243

> <rmsd>
0.369472355

$$$$
CHEMBL428162 PubChem-44379503
  DSViewer          3D                             0

100106  0  0  0  0  0  0  0  0999 V2000
  101.2532    2.6864   26.3506 C   0  0
  100.0002    1.8977   26.2260 C   0  0
   98.9156   -0.3812   25.7895 C   0  0  1  0  0  0
   98.0522   -0.4436   27.0483 C   0  0
   98.7182   -1.3017   28.1154 C   0  0
   98.6294   -2.7453   27.7615 C   0  0
   98.1379   -0.0204   24.5677 C   0  0
   97.8158   -0.3261   22.0627 C   0  0  1  0  0  0
   97.8230    1.1626   21.6703 C   0  0
   99.2037    1.7545   21.5843 C   0  0
   99.7848    2.2304   20.4374 C   0  0
  101.1417    2.4457   22.0920 C   0  0
   98.3241   -1.2346   20.9826 C   0  0
  100.1049   -1.6535   19.1755 C   0  0  1  0  0  0
  100.9721   -2.6453   19.9414 C   0  0
  101.9182   -1.9184   20.8451 C   0  0
  102.8848   -0.9881   20.4730 C   0  0
  102.8915   -1.0681   22.6219 C   0  0
  103.1519   -0.8339   23.9699 C   0  0
  102.3998   -1.5650   24.9125 C   0  0
  101.4218   -2.4890   24.4933 C   0  0
  101.1730   -2.6901   23.1271 C   0  0
  101.9311   -1.9517   22.2191 C   0  0
   99.2030   -2.2943   18.1621 C   0  0
   98.1515   -4.3370   17.1558 C   0  0  1  0  0  0
   98.9849   -5.1688   16.1892 C   0  0
   97.1231   -5.1865   17.8442 C   0  0
   95.1163   -3.7137   17.1378 C   0  0  1  0  0  0
   95.2787   -2.4891   18.0432 C   0  0
   94.3233   -1.4095   17.6300 C   0  0
   92.9413   -1.6245   17.7031 C   0  0
   92.0574   -0.6332   17.2663 C   0  0
   92.5485    0.5681   16.7482 C   0  0
   93.9282    0.7907   16.6893 C   0  0
   94.8146   -0.2015   17.1295 C   0  0
   95.5365   -3.4837   15.7146 C   0  0
   94.5332   -3.6839   13.4426 C   0  0  2  0  0  0
   93.0725   -3.2150   13.5735 C   0  0
   92.0881   -4.3329   13.7557 C   0  0
   91.0364   -4.4734   12.8388 C   0  0
   90.1096   -5.5135   12.9777 C   0  0
   90.2312   -6.4136   14.0370 C   0  0
   89.3136   -7.4554   14.1764 C   0  0
   89.4355   -8.3592   15.2380 C   0  0
   90.4776   -8.2156   16.1684 C   0  0
   91.3961   -7.1654   16.0350 C   0  0
   91.2792   -6.2681   14.9725 C   0  0
   92.1964   -5.2278   14.8325 C   0  0
   94.8208   -4.5590   12.2592 C   0  0
   94.0289   -5.6509   10.1087 C   0  0  1  0  0  0
   94.5141   -7.0880   10.3449 C   0  0
   93.4901   -7.9962   11.0221 C   0  0
   93.5236   -7.7994   12.5272 C   0  0
   93.8333   -9.4431   10.7097 C   0  0
   92.8256   -5.5827    9.2209 C   0  0
   90.4222   -6.2508    8.7774 C   0  0  1  0  0  0
   90.5055   -7.5742    8.0282 C   0  0
   91.4787   -7.4924    6.8731 C   0  0
   91.6021   -8.8494    6.2217 C   0  0
   92.8914   -9.8033    4.4224 C   0  0
   89.1508   -6.1695    9.5744 C   0  0
   89.3238   -3.6760    9.9383 C   0  0
   88.3900   -2.6273   10.5115 C   0  0
   87.0864   -3.3354   10.8590 C   0  0
   87.1781   -4.7517   10.3108 C   0  0  1  0  0  0
   86.1707   -5.0221    9.2205 C   0  0
   85.1365   -6.6825    7.6399 C   0  0
   84.8298   -8.1325    7.8275 C   0  0
   98.8875    2.4751   26.3559 O   0  0
   99.6813   -3.4065   27.5673 O   0  0
   97.3912   -3.3634   27.6436 O   0  0
   97.1594    0.7674   24.6456 O   0  0
   97.8662   -2.4082   20.8959 O   0  0
   98.5886   -1.5608   17.3371 O   0  0
   98.2212   -5.5120   15.0779 O   0  0
   97.4937   -6.1914   18.5133 O   0  0
   91.6689    1.5441   16.3020 O   0  0
   96.3222   -2.5399   15.4194 O   0  0
   96.0168   -4.8897   12.0175 O   0  0
   92.9298   -5.0472    8.0887 O   0  0
   88.6099   -7.2160   10.0182 O   0  0
   85.2445   -4.2006    8.9798 O   0  0
   84.4734   -8.5441    8.9625 O   0  0
  100.0725    0.4953   25.9629 N   0  0
   98.5297   -0.5740   23.3088 N   0  0
  101.0184    2.6594   20.7625 N   0  0
  100.0341    1.8896   22.6294 N   0  0
   99.3526   -0.7948   20.0895 N   0  0
  103.4837   -0.4661   21.5749 N   0  0
   99.0180   -3.7116   18.1395 N   0  0
   95.7241   -4.9106   17.7254 N   0  0
   94.9818   -4.2926   14.6842 N   0  0
   93.7808   -4.9430   11.3564 N   0  0
   91.5670   -6.1018    9.6680 N   0  0
   92.5799   -8.7811    5.1498 N   0  0
   93.8637   -9.6597    3.3951 N   0  0
   92.2747  -11.0750    4.6340 N   0  0
   88.5404   -4.8921    9.8131 N   0  0
   86.2007   -6.2789    8.5408 N   0  0
   84.4243   -8.6364    9.1090 N   0  0
  1  2  1  0  0  0
  2 84  1  0  0  0
  3 84  1  0  0  0
  3  4  1  0  0  0
  3  7  1  0  0  0
  4  5  1  0  0  0
  5  6  1  0  0  0
  6 71  1  0  0  0
  7 85  1  0  0  0
  8 85  1  0  0  0
  8  9  1  0  0  0
  8 13  1  0  0  0
  9 10  1  0  0  0
 10 87  1  0  0  0
 11 86  1  0  0  0
 13 88  1  0  0  0
 14 88  1  0  0  0
 14 15  1  0  0  0
 14 24  1  0  0  0
 15 16  1  0  0  0
 17 89  1  0  0  0
 19 20  1  0  0  0
 21 22  1  0  0  0
 23 16  1  0  0  0
 23 18  1  0  0  0
 24 90  1  0  0  0
 25 90  1  0  0  0
 25 26  1  0  0  0
 25 27  1  0  0  0
 26 75  1  0  0  0
 27 91  1  0  0  0
 28 91  1  0  0  0
 28 29  1  0  0  0
 28 36  1  0  0  0
 29 30  1  0  0  0
 31 32  1  0  0  0
 33 77  1  0  0  0
 33 34  1  0  0  0
 35 30  1  0  0  0
 36 92  1  0  0  0
 37 92  1  0  0  0
 37 38  1  0  0  0
 37 49  1  0  0  0
 38 39  1  0  0  0
 40 41  1  0  0  0
 42 43  1  0  0  0
 44 45  1  0  0  0
 46 47  1  0  0  0
 47 42  1  0  0  0
 48 39  1  0  0  0
 49 93  1  0  0  0
 50 93  1  0  0  0
 50 51  1  0  0  0
 50 55  1  0  0  0
 51 52  1  0  0  0
 52 53  1  0  0  0
 52 54  1  0  0  0
 55 94  1  0  0  0
 56 94  1  0  0  0
 56 57  1  0  0  0
 56 61  1  0  0  0
 57 58  1  0  0  0
 58 59  1  0  0  0
 59 95  1  0  0  0
 60 96  1  0  0  0
 60 97  1  0  0  0
 61 98  1  0  0  0
 62 98  1  0  0  0
 62 63  1  0  0  0
 63 64  1  0  0  0
 64 65  1  0  0  0
 65 66  1  0  0  0
 65 98  1  0  0  0
 66 99  1  0  0  0
 67 99  1  0  0  0
 67 68  1  0  0  0
 68100  1  0  0  0
 86 12  1  0  0  0
 89 18  1  0  0  0
  2 69  2  0  0  0
  6 70  2  0  0  0
  7 72  2  0  0  0
 10 11  2  0  0  0
 12 87  2  0  0  0
 13 73  2  0  0  0
 16 17  2  0  0  0
 18 19  2  0  0  0
 20 21  2  0  0  0
 22 23  2  0  0  0
 24 74  2  0  0  0
 27 76  2  0  0  0
 30 31  2  0  0  0
 32 33  2  0  0  0
 34 35  2  0  0  0
 36 78  2  0  0  0
 39 40  2  0  0  0
 41 42  2  0  0  0
 43 44  2  0  0  0
 45 46  2  0  0  0
 47 48  2  0  0  0
 49 79  2  0  0  0
 55 80  2  0  0  0
 60 95  2  0  0  0
 61 81  2  0  0  0
 66 82  2  0  0  0
 68 83  2  0  0  0
M  END
> <rmsd>
0.635569

$$$$
CHEMBL1161683
  SciTegic06052412183D

 86 96  0  0  0  0            999 V2000
   93.2196   -6.0328   15.0888 N   0  0
   98.0516   -5.3687   22.2497 N   0  0
   97.2793   -7.3103   21.3716 N   0  0
  100.3981   -8.5975   22.7798 N   0  0
  100.1035   -6.2668   23.1696 N   0  0
   98.7544   -9.9151   21.5804 N   0  0
   92.9862   -5.1319    9.1868 N   0  0
   94.4878   -5.3509    7.5099 N   0  0
   91.4824   -5.0439    5.4580 N   0  0
   91.0252   -4.9109    7.7891 N   0  0
   93.7359   -5.3555    4.6146 N   0  0
   88.3465   -8.9255    4.6502 N   0  0
   88.9717  -10.9041    3.7325 N   0  0
   91.1788   -8.7211    1.8096 N   0  0
   89.8294   -7.5197    3.3545 N   0  0
   91.0445  -11.1280    1.5835 N   0  0
   91.3784   -4.8925   14.4330 N   0  0
   89.7170   -7.9360   15.6084 N   0  0
   92.0815   -8.0210   15.8578 N   0  0
   88.6000   -6.0027   14.6577 N   0  0
   94.5834   -6.3327   15.5063 C   0  0
   95.5992   -5.8309   14.4891 C   0  0
   96.3444   -4.7716   15.2602 C   0  0
   96.1012   -5.1685   16.6899 C   0  0
   96.1575   -3.9473   17.5835 C   0  0
   97.0764   -3.1067   22.0499 C   0  0
   98.1674   -3.9659   22.6462 C   0  0
   98.9242   -6.3514   22.5037 C   0  0
   98.4634   -7.5086   21.9804 C   0  0
   97.0543   -5.9794   21.5556 C   0  0
   99.2055   -8.6749   22.1178 C   0  0
  100.8466   -7.4096   23.3029 C   0  0
   97.4532   -2.6438   24.3451 C   0  0
   96.9025   -2.0239   23.0795 C   0  0
   96.3237   -2.8876   25.3313 C   0  0
   93.9181   -7.0757   12.1314 C   0  0
   92.8573   -7.4351   11.1131 C   0  0
   91.8146   -6.3223   11.0019 C   0  0
   92.4355   -5.0043   10.5280 C   0  0
   92.3503   -5.0809    8.0124 C   0  0
   93.2435   -5.2254    7.0132 C   0  0
   94.2950   -5.2794    8.8575 C   0  0
   92.8149   -5.2146    5.6940 C   0  0
   90.5930   -4.8939    6.4921 C   0  0
   88.4433   -7.4944    8.8441 C   0  0
   87.7999   -7.0433    7.5502 C   0  0
   87.6946   -7.9173    5.4829 C   0  0
   89.2952   -8.7086    3.7340 C   0  0
   89.6632   -9.8875    3.1850 C   0  0
   88.1696  -10.2746    4.6391 C   0  0
   90.6324   -9.9118    2.1933 C   0  0
   90.7867   -7.5361    2.3785 C   0  0
   86.4654   -8.4484    6.1755 C   0  0
   86.4022   -7.6232    7.4343 C   0  0
   92.1379   -6.7914   15.2893 C   0  0
   91.0399   -6.1165   14.8910 C   0  0
   92.7329   -4.8682   14.5815 C   0  0
   89.7843   -6.6913   15.0451 C   0  0
   90.8511   -8.5969   16.0113 C   0  0
   94.8304   -5.7554   16.7638 O   0  0
   96.0164   -4.3235   18.9166 O   0  0
   95.0150   -1.8783   19.7317 O   0  0
   97.4678   -2.5968   20.8073 O   0  0
   98.0919   -3.8648   24.0471 O   0  0
   97.6586   -0.8919   22.7568 O   0  0
   96.8483   -3.3098   26.5556 O   0  0
   95.9796   -4.3211   28.8051 O   0  0
   94.3715   -2.6415   27.6101 O   0  0
   94.8114   -5.1853   26.6294 O   0  0
   97.7171   -4.7716   14.9757 O   0  0
   96.4507   -6.8921   14.1435 O   0  0
   96.3907   -5.7123   11.7647 O   0  0
   94.9954   -7.9560   12.0142 O   0  0
   90.8056   -6.7048   10.1124 O   0  0
   89.2463   -7.7159   11.9649 O   0  0
   88.0247   -6.6696    9.8925 O   0  0
   88.5868   -7.4683    6.4642 O   0  0
   85.4814   -6.5724    7.3131 O   0  0
   85.3391   -8.2737    5.3702 O   0  0
   89.2644   -5.1068   11.7884 O   0  0
   92.2403   -8.6268   11.4950 O   0  0
   97.7356   -7.9305   11.9411 O   0  0
   96.1461   -2.8793   19.7852 P   0  0
   95.5168   -3.8758   27.4363 P   0  0
   96.3753   -7.0634   12.4511 P   0  0
   89.3394   -6.5843   10.9660 P   0  0
  1 55  1  0
  2 28  1  0
  7 40  1  0
 12 48  1  0
 21  1  1  0
 21 22  1  0
 21 60  1  0
 22 23  1  0
 22 71  1  0
 23 24  1  0
 23 70  1  0
 24 60  1  0
 24 25  1  0
 25 61  1  0
 26 63  1  0
 26 27  1  0
 27  2  1  0
 27 64  1  0
 28  5  1  0
 29  3  1  0
 29 31  1  0
 30  2  1  0
 31  6  1  0
 32  4  1  0
 33 64  1  0
 33 34  1  0
 33 35  1  0
 34 65  1  0
 34 26  1  0
 35 66  1  0
 36 73  1  0
 36 37  1  0
 37 38  1  0
 37 81  1  0
 38 39  1  0
 38 74  1  0
 39  7  1  0
 40 10  1  0
 41  8  1  0
 41 43  1  0
 42  7  1  0
 43 11  1  0
 44  9  1  0
 45 76  1  0
 46 45  1  0
 46 77  1  0
 47 77  1  0
 47 12  1  0
 47 53  1  0
 48 15  1  0
 49 13  1  0
 49 51  1  0
 50 12  1  0
 51 16  1  0
 52 14  1  0
 53 54  1  0
 53 79  1  0
 54 78  1  0
 54 46  1  0
 55 19  1  0
 56 17  1  0
 56 58  1  0
 57  1  1  0
 58 20  1  0
 59 18  1  0
 83 61  1  0
 83 63  1  0
 84 66  1  0
 84 68  1  0
 84 69  1  0
 85 71  1  0
 85 73  1  0
 85 82  1  0
 86 74  1  0
 86 76  1  0
 86 80  1  0
 28 29  2  0
 30  3  2  0
 31  4  2  0
 32  5  2  0
 40 41  2  0
 42  8  2  0
 43  9  2  0
 44 10  2  0
 48 49  2  0
 50 13  2  0
 51 14  2  0
 52 15  2  0
 55 56  2  0
 57 17  2  0
 58 18  2  0
 59 19  2  0
 83 62  2  0
 84 67  2  0
 85 72  2  0
 86 75  2  0
M  END
> <Name>
CHEMBL1161683

> <rmsd>
0.649301112

$$$$
CHEMBL517259 PubChem-25023948
  SciTegic06052412183D

 35 38  0  0  0  0            999 V2000
   97.7979   -2.2182   21.3283 O   0  0
   97.6858   -6.9546   20.8878 O   0  0
   89.3339   -4.6272   12.8482 O   0  0
   86.5900   -3.8755   13.2381 O   0  0
   88.0299   -6.6493   10.2686 O   0  0
   90.5528   -6.0650   10.1198 O   0  0
   96.6007   -3.5362   26.0840 O   0  0
   97.8666   -1.7068   22.4773 C   0  0
   96.9952   -3.7840   23.7036 C   0  0
   96.9490   -4.5913   22.5571 C   0  0
   96.4632   -5.9061   22.6287 C   0  0
   96.4043   -6.7722   21.4114 C   0  0
   95.4947   -6.1601   20.3583 C   0  0
   94.9404   -6.3603   18.1082 C   0  0
   94.4782   -7.2842   16.9986 C   0  0
   92.0027   -7.4455   16.4059 C   0  0
   89.6673   -7.6782   15.9461 C   0  0
   91.0068   -6.4491   14.4875 C   0  0
   92.1053   -6.6823   15.2401 C   0  0
   92.6768   -5.5001   13.5635 C   0  0
   90.5009   -5.2290   12.3367 C   0  0
   88.2702   -5.0738   12.0443 C   0  0
   86.9942   -5.1573   12.8631 C   0  0
   88.6305   -6.4350   11.5120 C   0  0
   90.1346   -6.3786   11.4163 C   0  0
   96.0244   -6.4140   23.8531 C   0  0
   96.0741   -5.6192   25.0007 C   0  0
   96.5592   -4.3106   24.9300 C   0  0
   97.4723   -2.4299   23.6497 N   0  0
   95.2216   -7.1276   19.3095 N   0  0
   93.1178   -7.7289   17.2599 N   0  0
   90.7657   -7.9277   16.7297 N   0  0
   89.7815   -6.9302   14.8081 N   0  0
   93.1817   -6.0939   14.6817 N   0  0
   91.3427   -5.7011   13.4289 N   0  0
  8 29  1  0
 10 11  1  0
 12 11  1  0
 12  2  1  0
 12 13  1  0
 13 30  1  0
 14 30  1  0
 14 15  1  0
 15 31  1  0
 17 32  1  0
 18 33  1  0
 19 34  1  0
 19 16  1  0
 20 35  1  0
 21 35  1  0
 21  3  1  0
 22  3  1  0
 22 23  1  0
 22 24  1  0
 23  4  1  0
 24  5  1  0
 24 25  1  0
 25  6  1  0
 25 21  1  0
 26 27  1  0
 28  7  1  0
 28  9  1  0
 29  9  1  0
 31 16  1  0
 35 18  1  0
  8  1  2  0
  9 10  2  0
 11 26  2  0
 16 32  2  0
 17 33  2  0
 18 19  2  0
 20 34  2  0
 27 28  2  0
M  END
> <Name>
CHEMBL517259 PubChem-25023948

> <rmsd>
0.65932703

$$$$
CHEMBL264149 PubChem-44451545
  SciTegic06052412183D

 46 50  0  0  0  0            999 V2000
   95.5544   -6.1348   25.1744 C   0  0
   95.2458   -4.6506   25.0539 C   0  0
   97.6531   -3.7385   22.4652 C   0  0
   96.8326   -2.9987   21.4705 C   0  0
   94.5915   -2.5563   20.3795 C   0  0
   93.1474   -2.8196   20.6755 C   0  0
   92.2381   -4.7494   18.9775 C   0  0
   90.8677   -4.9026   19.5177 C   0  0
   92.8068   -5.6303   18.1144 C   0  0
   92.1379   -6.8978   17.6503 C   0  0
   89.9703   -7.1671   16.5822 C   0  0
   89.0841   -7.0716   15.4883 C   0  0
   89.5239   -6.5141   14.2792 C   0  0
   90.8457   -6.0824   14.2241 C   0  0
   91.6763   -6.1878   15.3021 C   0  0
   92.9248   -5.7188   14.9327 C   0  0
   92.7731   -5.3300   13.5978 C   0  0
   90.9840   -5.3147   11.8452 C   0  0
   91.4628   -6.3947   10.8819 C   0  0
   89.5316   -8.0200   11.1302 C   0  0
   94.2447   -5.4529   17.6720 C   0  0
   94.4270   -3.3425   19.1751 C   0  0
   99.1054   -3.9372   22.2207 C   0  0
  100.9691   -3.9922   20.9654 C   0  0
  100.0352   -4.3583   23.1844 C   0  0
   95.7274   -3.8939   26.2493 C   0  0
   95.7826   -4.1102   23.8523 O   0  0
   97.3845   -2.1823   20.6831 O   0  0
   92.3524   -2.4663   21.5844 O   0  0
   89.9516   -5.4177   18.8285 O   0  0
   90.5626   -4.4361   20.7899 O   0  5
   88.7135   -7.1851   10.6606 O   0  0
   96.9444   -3.9112   26.5743 O   0  0
   94.8223   -3.1605   27.0051 O   0  0
   97.1207   -4.2379   23.5415 N   0  0
   95.4203   -3.2097   21.3863 N   0  0
   93.0683   -3.7005   19.4873 N   0  0
   91.2552   -6.7019   16.4968 N   0  3
   91.5044   -5.5541   13.1845 N   0  0
   90.9178   -7.6953   11.2482 N   0  0
   89.0707   -9.2995   11.5473 N   0  0
   99.6447   -3.7417   20.9849 N   0  0
  101.7681   -3.8636   19.7954 N   0  0
   95.3693   -4.8977   19.0082 S   0  0
  101.5521   -4.4707   22.4626 S   0  0
   99.7554   -4.6823   24.8880 Cl  0  0
  2  1  1  0
  2 27  1  0
  2 26  1  0
  3  4  1  0
  3 23  1  0
  4 36  1  0
  5 36  1  0
  5  6  1  0
  6 37  1  0
  7  8  1  0
  8 31  1  0
 10  9  1  0
 10 38  1  0
 11 12  1  0
 13 14  1  0
 15 16  1  0
 15 38  1  0
 17 39  1  0
 18 39  1  0
 18 19  1  0
 19 40  1  0
 20 41  1  0
 21  9  1  0
 21 44  1  0
 22 44  1  0
 22  5  1  0
 22 37  1  0
 23 42  1  0
 24 43  1  0
 24 45  1  0
 25 45  1  0
 25 46  1  0
 26 34  1  0
 27 35  1  0
 37  7  1  0
 39 14  1  0
 40 20  1  0
  3 35  2  0
  4 28  2  0
  6 29  2  0
  7  9  2  0
  8 30  2  0
 12 13  2  0
 14 15  2  0
 16 17  2  0
 20 32  2  0
 24 42  2  0
 25 23  2  0
 26 33  2  0
 38 11  2  0
M  CHG  2  31  -1  38   1
M  END
> <Name>
CHEMBL264149 PubChem-44451545

> <rmsd>
0.644372523

$$$$
CHEMBL268094 PubChem-44348183
  SciTegic06052412183D

105112  0  0  0  0            999 V2000
   79.6354   -4.1850   14.5077 C   0  0
   79.7178   -5.6269   14.1299 C   0  0
   80.7692   -6.5530   14.6914 C   0  0
   81.2700   -6.2812   16.1113 C   0  0
   85.0130   -5.0998   16.5542 C   0  0
   86.2458   -5.9276   16.8748 C   0  0
   87.0568   -5.3102   17.9697 C   0  0
   86.9801   -7.4169   19.3819 C   0  0
   87.7422   -7.8904   20.6058 C   0  0
   88.4796   -6.6686   21.1445 C   0  0
   88.5651   -5.6809   19.9928 C   0  0
   89.9266   -5.6829   19.3324 C   0  0
   90.9068   -6.8058   19.5456 C   0  0
   93.1926   -7.3225   19.4898 C   0  0
   93.5595   -8.0991   20.7341 C   0  0
   93.3331   -7.1340   21.8600 C   0  0
   92.3247   -6.1354   21.3193 C   0  0
   92.7217   -4.7318   21.6827 C   0  0
   93.8259   -4.0117   20.9627 C   0  0
   95.7778   -4.0309   22.3101 C   0  0
   96.8490   -4.9546   22.8750 C   0  0
   96.2232   -6.2070   23.4546 C   0  0
   97.2826   -7.0525   24.1398 C   0  0
   97.5322   -6.5656   25.5556 C   0  0
   96.4091   -2.7280   21.8933 C   0  0
   96.1014   -1.4418   22.6126 C   0  0
   96.4681   -1.8121   24.9070 C   0  0
   96.6356   -0.5104   25.7020 C   0  0
   95.3875   -0.0775   26.4059 C   0  0
   96.2109   -2.9932   25.7963 C   0  0
   86.7366   -6.9326   14.6099 C   0  0
   87.6806   -7.0699   13.4567 C   0  0
   88.7378   -8.1151   13.7892 C   0  0
   89.8435   -7.5125   14.5905 C   0  0
   90.1301   -7.7752   15.9239 C   0  0
   91.5914   -6.3584   15.2373 C   0  0
   92.6740   -5.4816   15.1471 C   0  0
   92.9053   -4.8606   13.9053 C   0  0
   92.0639   -5.1253   12.7984 C   0  0
   90.9828   -6.0093   12.9220 C   0  0
   90.7802   -6.6050   14.1630 C   0  0
   87.4739   -7.4045   10.9472 C   0  0
   86.7514   -8.0833    9.8392 C   0  0
   87.2057   -9.5424    9.7998 C   0  0
   87.3919  -10.0372    8.3690 C   0  0
   88.5909   -9.3878    7.6822 C   0  0
   87.4250   -7.6669    6.4085 C   0  0
   84.2688   -8.6050    9.3597 C   0  0
   82.8608   -8.4240    9.8461 C   0  0
   81.9145   -7.7096    8.8675 C   0  0
   82.1281   -8.0526    7.4253 C   0  0
   82.6694   -7.0816    6.5768 C   0  0
   82.9133   -7.3753    5.2329 C   0  0
   82.6181   -8.6501    4.7309 C   0  0
   82.8660   -8.9519    3.3906 C   0  0
   82.5485  -10.2139    2.8877 C   0  0
   81.9875  -11.1821    3.7332 C   0  0
   81.7425  -10.8981    5.0777 C   0  0
   82.0522   -9.6303    5.5813 C   0  0
   81.8115   -9.3254    6.9274 C   0  0
   82.8530  -10.3660   11.4718 C   0  0
   82.0624  -11.4016   12.2002 C   0  0
   81.6912  -12.5210   11.2481 C   0  0
   80.2012  -12.7594   11.4359 C   0  0
   79.6608  -11.5348   12.1426 C   0  0
   80.7016  -10.1085   13.9310 C   0  0
   81.8368   -9.3121   14.5081 C   0  0
   82.9871  -10.1713   15.0004 C   0  0
   82.7571  -10.5284   16.4571 C   0  0
   83.8578  -11.3967   16.9602 C   0  0
   81.8558   -6.9164   13.7232 C   0  0
   78.9287   -6.0670   13.3105 O   0  0
   87.3809   -4.0931   17.8988 O   0  0
   90.2130   -4.7768   18.5639 O   0  0
   92.1160   -4.1512   22.5700 O   0  0
   97.1786   -2.6998   20.9476 O   0  0
   94.9138   -0.7702   27.3418 O   0  0
   94.7637    1.1049   26.0370 O   0  0
   97.0976   -3.3582   26.6138 O   0  0
   85.6716   -7.6090   14.6506 O   0  0
   88.5613   -6.8121   10.7244 O   0  0
   84.5275   -9.3654    8.3906 O   0  0
   84.0106  -10.0892   11.8847 O   0  0
   79.6200  -10.1407   14.5817 O   0  0
   83.9706  -12.5794   16.5510 O   0  0
   84.7369  -10.9128   17.9157 O   0  0
   82.3838   -6.0230   13.0103 O   0  0
   82.2125   -4.7220   16.2718 S   0  0
   83.6114   -5.5849   17.6206 S   0  0
   87.5555   -6.1276   19.0428 N   0  0
   92.2332   -6.2868   19.8660 N   0  0
   95.1110   -4.6699   21.1790 N   0  0
   96.3985   -6.8995   26.4031 N   0  0
   95.4294   -1.6803   23.8872 N   0  0
   94.9786   -3.7089   25.7346 N   0  0
   87.0726   -6.0585   15.6848 N   0  0
   91.2131   -7.0575   16.3204 N   0  0
   86.9473   -7.4891   12.2724 N   0  0
   88.3026   -8.0070    7.3051 N   0  0
   86.6953   -8.6534    5.6813 N   0  0
   87.1862   -6.2884    6.1469 N   0  0
   85.3216   -7.9789   10.0968 N   0  0
   82.2901   -9.6621   10.3584 N   0  0
   80.8119  -10.8515   12.6974 N   0  0
   82.2986   -8.2743   13.6024 N   0  0
  1  2  1  0
  3  2  1  0
  3  4  1  0
  3 71  1  0
  4 88  1  0
  5 89  1  0
  5  6  1  0
  6  7  1  0
  6 96  1  0
  7 90  1  0
  8 90  1  0
  8  9  1  0
  9 10  1  0
 10 11  1  0
 11 12  1  0
 11 90  1  0
 13 12  1  0
 13 91  1  0
 14 91  1  0
 14 15  1  0
 15 16  1  0
 16 17  1  0
 17 18  1  0
 17 91  1  0
 19 18  1  0
 19 92  1  0
 20 92  1  0
 20 21  1  0
 20 25  1  0
 21 22  1  0
 22 23  1  0
 23 24  1  0
 24 93  1  0
 26 25  1  0
 26 94  1  0
 27 94  1  0
 27 28  1  0
 27 30  1  0
 28 29  1  0
 29 78  1  0
 30 95  1  0
 32 31  1  0
 32 33  1  0
 32 98  1  0
 33 34  1  0
 35 97  1  0
 37 38  1  0
 39 40  1  0
 41 34  1  0
 41 36  1  0
 43 42  1  0
 43 44  1  0
 43102  1  0
 44 45  1  0
 45 46  1  0
 46 99  1  0
 47100  1  0
 47101  1  0
 49 48  1  0
 49 50  1  0
 49103  1  0
 50 51  1  0
 52 53  1  0
 54 55  1  0
 56 57  1  0
 58 59  1  0
 59 54  1  0
 60 51  1  0
 62 61  1  0
 62 63  1  0
 62104  1  0
 63 64  1  0
 64 65  1  0
 65104  1  0
 67 66  1  0
 67 68  1  0
 67105  1  0
 68 69  1  0
 69 70  1  0
 70 86  1  0
 88 89  1  0
 96 31  1  0
 97 36  1  0
 98 42  1  0
102 48  1  0
103 61  1  0
104 66  1  0
105 71  1  0
  2 72  2  0
  7 73  2  0
 12 74  2  0
 18 75  2  0
 25 76  2  0
 29 77  2  0
 30 79  2  0
 31 80  2  0
 34 35  2  0
 36 37  2  0
 38 39  2  0
 40 41  2  0
 42 81  2  0
 47 99  2  0
 48 82  2  0
 51 52  2  0
 53 54  2  0
 55 56  2  0
 57 58  2  0
 59 60  2  0
 61 83  2  0
 66 84  2  0
 70 85  2  0
 71 87  2  0
M  END
> <Name>
CHEMBL268094 PubChem-44348183

> <rmsd>
0.626716495

$$$$
CHEMBL2312606 PubChem-71539241 PubChem-71539242
  SciTegic06052412183D

 54 61  0  0  0  0            999 V2000
   94.6035   -6.2214   28.9784 C   0  0
   94.8023   -4.7775   28.5608 C   0  0
   95.4017   -4.1909   26.2447 C   0  0
   95.0183   -4.0929   24.8302 C   0  0
   93.7060   -4.4047   24.4339 C   0  0
   93.4110   -4.2957   23.0806 C   0  0
   92.2267   -4.4654   22.4043 C   0  0
   90.9576   -4.8351   22.8460 C   0  0
   89.9289   -4.8867   21.8875 C   0  0
   90.1865   -4.5653   20.5361 C   0  0
   91.4770   -4.1872   20.1211 C   0  0
   92.4860   -4.1502   21.0868 C   0  0
   94.3824   -3.3145   19.6766 C   0  0
   94.5160   -4.4563   18.6820 C   0  0
   95.2121   -3.9863   17.4127 C   0  0
   94.3512   -3.0080   16.6179 C   0  0
   93.0770   -3.6643   16.1065 C   0  0
   93.3937   -4.6763   15.0173 C   0  0
   91.4677   -6.2477   15.3560 C   0  0
   91.6953   -6.6135   16.6854 C   0  0
   90.8360   -7.5694   17.2582 C   0  0
   89.7877   -8.1410   16.5032 C   0  0
   89.5826   -7.7671   15.1626 C   0  0
   90.4439   -6.8129   14.6248 C   0  0
   90.5243   -6.2683   13.3652 C   0  0
   89.7865   -6.5288   12.2175 C   0  0
   90.1557   -5.8393   11.0483 C   0  0
   89.4228   -6.0612    9.7940 C   0  0
   89.1161   -5.5036    7.4059 C   0  0
   87.7978   -4.7443    7.4328 C   0  0
   91.9258   -4.6862   12.2042 C   0  0
   92.9919   -3.6760   12.1369 C   0  0
   94.0361   -3.8175   11.2182 C   0  0
   95.0251   -2.8358   11.1288 C   0  0
   94.9470   -1.7110   11.9529 C   0  0
   92.9384   -2.5212   12.9265 C   0  0
   91.5826   -5.3795   13.3816 C   0  0
   94.3488   -3.8992   22.1465 C   0  0
   95.6613   -3.6037   22.5628 C   0  0
   96.7424   -3.2257   21.6425 C   0  0
   97.1722   -4.1036   20.6416 C   0  0
   98.2414   -3.7515   19.8164 C   0  0
   98.8823   -2.5275   20.0178 C   0  0
   97.4265   -2.0199   21.8238 C   0  0
   94.4689   -4.6291   27.1885 O   0  0
   96.5742   -3.8853   26.5988 O   0  0
   88.4661   -6.8834    9.7556 O   0  0
   89.7949   -5.3565    8.6461 O   0  0
   93.7821   -3.7972   20.9143 N   0  0
   92.1766   -5.3680   14.6065 N   0  0
   91.1999   -4.9506   11.0747 N   0  0
   93.9119   -1.5758   12.8248 N   0  0
   98.4681   -1.6957   21.0113 N   0  0
   95.9443   -3.7041   23.8971 N   0  0
  1  2  1  0
  2 45  1  0
  3 45  1  0
  3  4  1  0
  4 54  1  0
  5  6  1  0
  6  7  1  0
  8  9  1  0
 10 11  1  0
 12 49  1  0
 12  7  1  0
 13 49  1  0
 13 14  1  0
 14 15  1  0
 15 16  1  0
 16 17  1  0
 17 18  1  0
 18 50  1  0
 20 21  1  0
 22 23  1  0
 24 25  1  0
 24 19  1  0
 26 27  1  0
 27 28  1  0
 28 48  1  0
 29 48  1  0
 29 30  1  0
 31 51  1  0
 31 32  1  0
 33 34  1  0
 35 52  1  0
 36 32  1  0
 37 50  1  0
 37 25  1  0
 38 39  1  0
 39 40  1  0
 41 42  1  0
 43 53  1  0
 44 40  1  0
 49 38  1  0
 50 19  1  0
  3 46  2  0
  4  5  2  0
  7  8  2  0
  9 10  2  0
 11 12  2  0
 19 20  2  0
 21 22  2  0
 23 24  2  0
 25 26  2  0
 27 51  2  0
 28 47  2  0
 31 37  2  0
 32 33  2  0
 34 35  2  0
 36 52  2  0
 38  6  2  0
 39 54  2  0
 40 41  2  0
 42 43  2  0
 44 53  2  0
M  END
> <Name>
CHEMBL2312606 PubChem-71539241 PubChem-71539242

> <rmsd>
0.666134357

$$$$
CHEMBL4447351 PubChem-155519074
  SciTegic06052412183D

 86 87  0  0  0  0            999 V2000
   90.8638   -8.4330   10.0222 O   0  0
   88.8574   -6.7664   10.2380 O   0  0
   90.5661   -6.2844    8.3209 O   0  0
   91.2306   -5.8403   10.9869 O   0  0
   89.4908   -7.8838   14.9799 O   0  0
   88.6323   -8.8608   16.8023 O   0  0
   94.2567   -3.5405   16.5377 O   0  0
   95.2711   -4.2201   20.5251 O   0  0
   97.9900   -1.9449   21.5016 O   0  0
  100.8708   -3.9505   24.1254 O   0  0
  103.6638   -4.1243   24.7255 O   0  0
  104.5412   -0.2499   22.4805 O   0  0
  103.6544    0.3671   24.5086 O   0  0
   96.9902   -3.6661   26.2909 O   0  0
   97.1253   -1.4065   26.6501 O   0  0
   97.6783   -6.0548   18.3616 O   0  0
   90.2304   -4.2194   19.4779 O   0  0
   87.1587   -5.8970   17.0797 O   0  0
   84.4622   -6.1735   19.4142 O   0  0
   82.7594   -8.5883   20.7403 O   0  0
   79.5245  -10.5127   20.5475 O   0  0
   76.7886   -8.8524   19.2390 O   0  0
   78.4943   -8.6045   17.7316 O   0  0
   90.3317   -6.8319    9.9036 P   0  0
   91.2133   -6.0042   12.3746 C   0  0
   90.3377   -6.9048   13.0038 C   0  0
   90.3333   -7.0370   14.3957 C   0  0
   89.4447   -8.0456   16.3007 C   0  0
   90.2907   -7.3118   17.1351 C   0  0
   91.1922   -6.4122   16.5712 C   0  0
   92.0730   -5.6128   17.4856 C   0  0
   91.6292   -4.1503   17.5348 C   0  0
   93.9298   -3.0853   17.6688 C   0  0
   94.8990   -2.2753   18.4668 C   0  0
   96.2741   -3.9072   19.8241 C   0  0
   97.6355   -4.4532   20.1580 C   0  0
   98.0717   -2.9974   22.1912 C   0  0
   98.2622   -2.9185   23.6705 C   0  0
  100.7193   -2.7014   24.2079 C   0  0
  101.8831   -1.8086   24.4987 C   0  0
  103.4597   -3.4143   25.7443 C   0  0
  104.1090   -3.7768   27.0304 C   0  0
  102.7862   -1.6491   23.2788 C   0  0
  103.7056   -0.4759   23.3975 C   0  0
   97.0305   -2.3094   24.3260 C   0  0
   97.0567   -2.5058   25.8053 C   0  0
   97.8166   -5.9184   19.7423 C   0  0
   96.8553   -6.8617   20.4521 C   0  0
   95.1708   -0.9024   17.8436 C   0  0
   95.8544   -0.0001   18.8585 C   0  0
   96.0132   -1.0099   16.5787 C   0  0
   95.9129    0.2704   15.7712 C   0  0
   90.3138   -4.0234   18.2340 C   0  0
   87.8051   -3.7956   18.0402 C   0  0
   87.3535   -5.2197   18.1271 C   0  0
   86.6441   -7.1680   19.5900 C   0  0
   85.1774   -7.2020   19.2550 C   0  0
   83.1937   -8.5084   18.3770 C   0  0
   82.2901   -8.4722   19.5708 C   0  0
   79.9401   -8.1514   20.4746 C   0  0
   79.7383   -9.4520   21.1905 C   0  0
   78.6237   -7.5382   19.9905 C   0  0
   77.9166   -8.3711   18.9707 C   0  0
   82.9493   -9.7836   17.5723 C   0  0
   83.2123   -9.6059   16.0755 C   0  0
   84.6713   -9.2975   15.7851 C   0  0
   82.3147   -8.5410   15.4734 C   0  0
   86.8966   -7.6536   21.0228 C   0  0
   86.4522   -9.0975   21.2012 C   0  0
   88.3778   -7.5700   21.3586 C   0  0
   86.8117   -2.9191   17.2772 C   0  0
   87.0791   -1.4511   17.5420 C   0  0
   86.8387   -3.1752   15.7780 C   0  0
   91.2218   -6.2630   15.1749 C   0  0
   92.0955   -5.3690   14.5428 C   0  0
   92.0875   -5.2383   13.1525 C   0  0
   92.6298   -3.3353   18.2059 N   0  0
   96.1319   -3.0153   18.7141 N   0  0
   97.9385   -4.2791   21.5748 N   0  0
   99.4368   -2.1191   23.9835 N   0  0
  102.6246   -2.2506   25.6786 N   0  0
   89.1439   -3.7149   17.4706 N   0  0
   87.1674   -5.8127   19.4121 N   0  0
   84.5968   -8.4124   18.7608 N   0  0
   80.8868   -8.2899   19.3733 N   0  0
   79.7985   -9.4845   22.6138 N   0  0
 24  1  1  0
 24  3  1  0
 24  4  1  0
 25  4  1  0
 26 27  1  0
 27  5  1  0
 28  5  1  0
 28 29  1  0
 30 74  1  0
 31 30  1  0
 32 31  1  0
 32 77  1  0
 32 53  1  0
 34 33  1  0
 34 78  1  0
 34 49  1  0
 36 35  1  0
 36 79  1  0
 36 47  1  0
 38 37  1  0
 38 80  1  0
 38 45  1  0
 40 39  1  0
 40 81  1  0
 40 43  1  0
 42 41  1  0
 43 44  1  0
 44 13  1  0
 45 46  1  0
 46 15  1  0
 47 16  1  0
 47 48  1  0
 49 50  1  0
 49 51  1  0
 51 52  1  0
 53 82  1  0
 54 82  1  0
 54 55  1  0
 54 71  1  0
 55 83  1  0
 56 83  1  0
 56 57  1  0
 56 68  1  0
 57 84  1  0
 58 84  1  0
 58 59  1  0
 58 64  1  0
 59 85  1  0
 60 85  1  0
 60 61  1  0
 60 62  1  0
 61 86  1  0
 62 63  1  0
 63 23  1  0
 64 65  1  0
 65 66  1  0
 65 67  1  0
 68 69  1  0
 68 70  1  0
 71 72  1  0
 71 73  1  0
 74 75  1  0
 76 25  1  0
 77 33  1  0
 78 35  1  0
 79 37  1  0
 80 39  1  0
 81 41  1  0
 24  2  2  0
 25 26  2  0
 28  6  2  0
 29 30  2  0
 33  7  2  0
 35  8  2  0
 37  9  2  0
 39 10  2  0
 41 11  2  0
 44 12  2  0
 46 14  2  0
 53 17  2  0
 55 18  2  0
 57 19  2  0
 59 20  2  0
 61 21  2  0
 63 22  2  0
 74 27  2  0
 75 76  2  0
M  END
> <Name>
CHEMBL4447351 PubChem-155519074

> <rmsd>
0.625427008

$$$$
CHEMBL1183420 CHEMBL296076 PubChem-44291410 PubChem-44291411
  SciTegic06052412183D

 49 55  0  0  0  0            999 V2000
   98.5668   -3.8881   19.6417 N   0  0
   96.8657   -3.0500   25.5899 N   0  3
   96.6594   -1.8926   18.4701 N   0  0
   95.1313   -3.9449   20.0031 N   0  0
   93.6759   -5.9622   17.2999 N   0  0
   98.2663   -3.1396   20.8409 C   0  0
   97.9106   -3.8544   22.0834 C   0  0
   97.9005   -5.2627   22.1102 C   0  0
   98.2395   -6.0129   20.9658 C   0  0
   98.5922   -5.3257   19.7066 C   0  0
   98.2204   -7.4134   21.0267 C   0  0
   97.8691   -8.0680   22.2095 C   0  0
   97.5309   -7.3304   23.3451 C   0  0
   97.5436   -5.9343   23.3037 C   0  0
   97.2041   -5.2037   24.4435 C   0  0
   97.2136   -3.8023   24.4193 C   0  0
   97.5667   -3.1384   23.2379 C   0  0
   98.7091   -3.2497   18.3256 C   0  0
   97.3569   -2.9111   17.7012 C   0  0
   95.2374   -2.1554   18.3334 C   0  0
   94.6586   -2.6094   19.6665 C   0  0
   94.1715   -4.8951   19.4641 C   0  0
   94.7430   -5.5560   18.2180 C   0  0
   93.6052   -5.3428   16.0056 C   0  0
   92.5305   -5.7212   15.0656 C   0  0
   91.5736   -6.6906   15.4322 C   0  0
   91.6267   -7.3101   16.7009 C   0  0
   92.6890   -6.9489   17.6617 C   0  0
   90.6669   -8.2697   17.0465 C   0  0
   89.6583   -8.6194   16.1500 C   0  0
   89.5969   -8.0130   14.8962 C   0  0
   90.5448   -7.0471   14.5194 C   0  0
   90.4860   -6.4275   13.2535 C   0  0
   91.4539   -5.4564   12.9062 C   0  0
   92.4599   -5.1145   13.8070 C   0  0
   91.4061   -4.8314   11.6576 C   0  0
   90.4021   -5.1620   10.7446 C   0  0
   89.4366   -6.1197   11.0696 C   0  0
   89.4831   -6.7491   12.3234 C   0  0
   87.4243   -7.3815   10.3811 C   0  0
   95.6358   -6.7311   18.5784 C   0  0
   99.6746   -2.0732   18.3338 C   0  0
   98.3006   -1.8783   20.8363 O   0  0
   98.9027   -6.0011   18.6866 O   0  0
   96.5156   -3.6315   26.6374 O   0  0
   96.9212   -1.6751   25.5729 O   0  5
   94.4589   -4.4751   15.6713 O   0  0
   92.7290   -7.5061   18.7935 O   0  0
   88.4462   -6.4260   10.1326 O   0  0
  1  6  1  0
  2 46  1  0
  5 24  1  0
  6  7  1  0
  8  9  1  0
  9 10  1  0
 10  1  1  0
 11 12  1  0
 13 14  1  0
 14  8  1  0
 15 16  1  0
 16  2  1  0
 17  7  1  0
 18  1  1  0
 18 19  1  0
 18 42  1  0
 19  3  1  0
 20  3  1  0
 20 21  1  0
 21  4  1  0
 22  4  1  0
 22 23  1  0
 23  5  1  0
 23 41  1  0
 24 25  1  0
 26 27  1  0
 27 28  1  0
 28  5  1  0
 29 30  1  0
 31 32  1  0
 32 26  1  0
 33 34  1  0
 34 36  1  0
 35 25  1  0
 37 38  1  0
 38 49  1  0
 39 33  1  0
 40 49  1  0
  2 45  2  0
  6 43  2  0
  7  8  2  0
  9 11  2  0
 10 44  2  0
 12 13  2  0
 14 15  2  0
 16 17  2  0
 24 47  2  0
 25 26  2  0
 27 29  2  0
 28 48  2  0
 30 31  2  0
 32 33  2  0
 34 35  2  0
 36 37  2  0
 38 39  2  0
M  CHG  2   2   1  46  -1
M  END
> <Name>
CHEMBL1183420 CHEMBL296076 PubChem-44291410 PubChem-44291411

> <rmsd>
0.623929143

$$$$
CHEMBL186004 NSC710558 PubChem-399640
  SciTegic06052412183D

 66 73  0  0  0  0            999 V2000
   88.5375   -7.6793    8.3807 C   0  0
   87.1386   -6.9428   10.0900 C   0  0
   88.4703   -8.8272   10.4128 C   0  0
   89.8589   -9.1434   10.9562 C   0  0
   91.0397   -7.2558   11.9338 C   0  0
   91.3207   -6.4063   12.9975 C   0  0
   90.7239   -6.6479   14.2564 C   0  0
   91.0132   -5.7562   15.3334 C   0  0
   91.8597   -4.6323   15.1058 C   0  0
   92.4337   -4.4415   13.8478 C   0  0
   92.1731   -5.3180   12.8096 C   0  0
   92.9105   -2.4596   15.9184 C   0  0
   94.3417   -2.7103   16.3448 C   0  0
   94.4677   -2.4205   17.8450 C   0  0
   96.8051   -1.9241   17.6830 C   0  0
   96.1207   -4.1278   18.2200 C   0  0
   95.3669   -4.9679   19.2468 C   0  0
   96.1196   -5.0813   20.5655 C   0  0
   96.7562   -3.5875   22.5058 C   0  0
   97.7013   -2.6028   22.9116 C   0  0
   98.0400   -2.4822   24.2930 C   0  0
   97.3887   -3.3223   25.2255 C   0  0
   96.4608   -4.2748   24.8009 C   0  0
   96.1554   -4.4108   23.4575 C   0  0
   97.6954   -3.2085   26.5763 C   0  0
   99.2757   -1.5028   26.0861 C   0  0
   99.6545   -0.7839   23.7891 C   0  0
   99.3277   -0.8743   22.4140 C   0  0
   98.3492   -1.7687   21.9833 C   0  0
  100.0078   -0.0849   21.4692 C   0  0
  101.0173    0.7994   21.8541 C   0  0
  101.3479    0.8984   23.2044 C   0  0
  100.6771    0.1224   24.1487 C   0  0
   98.9851   -2.2348   28.4036 C   0  0
   99.9870   -3.3220   28.7445 C   0  0
  100.7996   -4.4593   30.6085 C   0  0
  101.7473   -2.4316   29.9858 C   0  0
   90.4437   -6.0138   16.5942 C   0  0
   89.6032   -7.1128   16.7668 C   0  0
   89.3187   -7.9716   15.6754 C   0  0
   89.6048   -8.5389   13.3238 C   0  0
   88.4626   -9.0684   15.9252 C   0  0
   87.9120   -9.3109   17.1809 C   0  0
   88.2003   -8.4592   18.2470 C   0  0
   89.0444   -7.3658   18.0317 C   0  0
   88.4505   -7.5004    9.8198 N   0  0
   90.1730   -8.2860   12.1041 N   0  0
   92.1020   -3.6546   16.1292 N   0  0
   95.8007   -2.7104   18.3899 N   0  0
   96.4005   -3.7653   21.1303 N   0  0
   98.6308   -2.3102   26.9831 N   0  0
   98.9967   -1.5755   24.7253 N   0  0
  101.7289    1.5687   20.8734 N   0  3
  100.4837   -3.1374   30.0969 N   0  0
   89.8734   -7.7307   14.4227 N   0  0
   87.6335   -8.7038   19.5420 N   0  3
   91.5777   -7.0582   10.8070 O   0  0
   97.1101   -3.9436   27.4224 O   0  0
  100.1319   -0.6856   26.5319 O   0  0
   98.0681   -1.8253   20.7533 O   0  0
  101.4298    1.4840   19.6640 O   0  0
  102.7937    2.3575   21.2475 O   0  5
   90.6897   -5.2662   17.5824 O   0  0
   88.8259   -9.5276   13.4193 O   0  0
   87.8993   -7.9517   20.5026 O   0  0
   86.7554   -9.7473   19.7319 O   0  5
  1 46  1  0
  2 46  1  0
  3 46  1  0
  3  4  1  0
  4 47  1  0
  5  6  1  0
  7  8  1  0
  8 38  1  0
  9 10  1  0
  9 48  1  0
 11  6  1  0
 12 48  1  0
 12 13  1  0
 13 14  1  0
 14 49  1  0
 15 49  1  0
 16 49  1  0
 16 17  1  0
 17 18  1  0
 18 50  1  0
 19 20  1  0
 21 22  1  0
 22 25  1  0
 23 24  1  0
 25 51  1  0
 26 52  1  0
 28 29  1  0
 28 30  1  0
 29 20  1  0
 31 32  1  0
 31 53  1  0
 33 27  1  0
 34 51  1  0
 34 35  1  0
 35 54  1  0
 36 54  1  0
 37 54  1  0
 38 39  1  0
 40 55  1  0
 40 42  1  0
 41 47  1  0
 43 44  1  0
 44 56  1  0
 45 39  1  0
 47  5  1  0
 50 19  1  0
 51 26  1  0
 52 27  1  0
 52 21  1  0
 53 62  1  0
 55 41  1  0
 55  7  1  0
 56 66  1  0
  5 57  2  0
  6  7  2  0
  8  9  2  0
 10 11  2  0
 20 21  2  0
 22 23  2  0
 24 19  2  0
 25 58  2  0
 26 59  2  0
 27 28  2  0
 29 60  2  0
 30 31  2  0
 32 33  2  0
 38 63  2  0
 39 40  2  0
 41 64  2  0
 42 43  2  0
 44 45  2  0
 53 61  2  0
 56 65  2  0
M  CHG  4  53   1  56   1  62  -1  66  -1
M  END
> <Name>
CHEMBL186004 NSC710558 PubChem-399640

> <rmsd>
0.563729823

$$$$
CHEMBL329958 PubChem-44328911
  SciTegic06052412183D

 55 63  0  0  0  0            999 V2000
  101.0406   -5.4131   32.5113 C   0  0
  101.4154   -5.0805   30.1011 C   0  0
  100.8805   -4.6803   28.7859 C   0  0
   99.5792   -4.2600   28.5788 C   0  0
   99.5160   -3.9710   27.2247 C   0  0
   98.3053   -3.5245   26.5114 C   0  0
   98.3488   -3.0266   25.1228 C   0  0
   97.4130   -3.3563   24.1607 C   0  0
   97.8000   -2.6420   23.0371 C   0  0
   97.1479   -2.6830   21.7156 C   0  0
   95.8131   -3.2814   21.5204 C   0  0
   95.4878   -4.1034   20.4555 C   0  0
   94.1526   -4.4083   20.6667 C   0  0
   93.7366   -5.8587   18.6161 C   0  0
   92.8027   -6.7753   17.9088 C   0  0
   91.6193   -5.9952   17.3631 C   0  0
   89.9793   -7.8985   17.1045 C   0  0
   89.8953   -8.3371   18.4268 C   0  0
   89.0390   -9.4175   18.7056 C   0  0
   88.2919  -10.0301   17.6757 C   0  0
   88.3868   -9.5727   16.3496 C   0  0
   89.2428   -8.5034   16.1006 C   0  0
   89.5449   -7.8299   14.9391 C   0  0
   89.1107   -7.9706   13.6119 C   0  0
   89.6011   -7.1041   12.6462 C   0  0
   90.5174   -6.0980   12.9993 C   0  0
   91.1518   -5.1020   12.3025 C   0  0
   91.1098   -4.7345   10.9600 C   0  0
   91.8919   -3.6355   10.5638 C   0  0
   92.6841   -2.9407   11.5029 C   0  0
   92.7066   -3.3336   12.8538 C   0  0
   91.9249   -4.4247   13.2281 C   0  0
   90.9472   -5.9627   14.3151 C   0  0
   90.4572   -6.8392   15.2947 C   0  0
   88.9798   -7.4794   11.4019 C   0  0
   88.1415   -8.9485   13.0199 C   0  0
   93.7065   -3.7716   21.8049 C   0  0
   94.6378   -2.1892   23.4577 C   0  0
   98.9339   -1.9121   23.3440 C   0  0
  100.3154   -1.4746   25.3454 C   0  0
  100.7489   -4.2366   26.6565 C   0  0
  102.9613   -5.0375   27.4147 C   0  0
  100.5766   -5.0597   31.2164 O   0  0
  102.6197   -5.4378   30.2191 O   0  0
   97.1882   -3.6129   27.0885 O   0  0
   97.7666   -2.2374   20.7119 O   0  0
   94.8661   -5.6198   18.1124 O   0  0
   89.1672   -6.9283   10.2861 O   0  0
   93.3345   -5.2530   19.8502 N   0  0
   90.7319   -6.8811   16.6188 N   0  0
   91.8148   -4.9370   14.4768 N   0  0
   88.1019   -8.5832   11.5990 N   0  0
   94.7396   -3.0845   22.3174 N   0  0
   99.2538   -2.1570   24.6248 N   0  0
  101.5735   -4.6597   27.6273 N   0  0
  1 43  1  0
  2 43  1  0
  2  3  1  0
  4  5  1  0
  5  6  1  0
  6  7  1  0
  8  9  1  0
  9 10  1  0
 10 11  1  0
 12 13  1  0
 13 49  1  0
 15 14  1  0
 15 16  1  0
 16 50  1  0
 18 19  1  0
 20 21  1  0
 22 23  1  0
 22 17  1  0
 24 25  1  0
 25 35  1  0
 26 27  1  0
 28 29  1  0
 30 31  1  0
 32 51  1  0
 32 27  1  0
 33 26  1  0
 34 50  1  0
 34 23  1  0
 35 52  1  0
 36 52  1  0
 36 24  1  0
 37 53  1  0
 38 53  1  0
 39 54  1  0
 40 54  1  0
 41 55  1  0
 42 55  1  0
 49 14  1  0
 50 17  1  0
 51 33  1  0
 53 11  1  0
 54  7  1  0
 55  3  1  0
  2 44  2  0
  3  4  2  0
  5 41  2  0
  6 45  2  0
  7  8  2  0
  9 39  2  0
 10 46  2  0
 11 12  2  0
 13 37  2  0
 14 47  2  0
 17 18  2  0
 19 20  2  0
 21 22  2  0
 23 24  2  0
 25 26  2  0
 27 28  2  0
 29 30  2  0
 31 32  2  0
 33 34  2  0
 35 48  2  0
M  END
> <Name>
CHEMBL329958 PubChem-44328911

> <rmsd>
0.602232397

$$$$
CHEMBL2028296
  SciTegic06052412183D

 64 71  0  0  0  0            999 V2000
   81.8403  -11.6959   10.7838 N   0  0
   88.4337   -8.1793   13.1802 N   0  0
   88.5275   -8.0938   14.4460 N   0  0
   92.6007   -5.5536   17.5225 N   0  0
   93.5395   -4.8058   17.1021 N   0  0
   97.2104   -2.3017   20.6469 N   0  0
   97.3357   -2.6718   21.8595 N   0  0
   82.9536  -11.0943   11.4242 C   0  0
   82.9818  -10.9850   12.8176 C   0  0
   84.0774  -10.4005   13.4589 C   0  0
   85.1541   -9.9177   12.6979 C   0  0
   86.2560   -9.3132   13.3125 C   0  0
   87.3217   -8.8183   12.5457 C   0  0
   89.6143   -7.4444   15.1252 C   0  0
   89.5979   -7.4855   16.5183 C   0  0
   90.5925   -6.8661   17.2690 C   0  0
   91.6378   -6.1786   16.6555 C   0  0
   94.4823   -4.1951   17.9887 C   0  0
   94.4658   -4.4882   19.3573 C   0  0
   95.3727   -3.8799   20.2221 C   0  0
   96.3139   -2.9592   19.7422 C   0  0
   98.1960   -1.9801   22.7695 C   0  0
   98.8360   -0.7854   22.3987 C   0  0
   99.6388   -0.1007   23.3123 C   0  0
   99.8102   -0.6003   24.6048 C   0  0
  100.5865    0.1084   25.5222 C   0  0
  100.7537   -0.3747   26.8213 C   0  0
  100.1527   -1.5764   27.2006 C   0  0
   99.3751   -2.3074   26.2951 C   0  0
   99.1855   -1.8129   24.9890 C   0  0
   98.3765   -2.4863   24.0590 C   0  0
   96.3436   -2.6551   18.3705 C   0  0
   97.2741   -1.7368   17.8618 C   0  0
   97.3015   -1.4386   16.4997 C   0  0
   96.4021   -2.0568   15.6319 C   0  0
   95.4715   -2.9745   16.1225 C   0  0
   95.4291   -3.2850   17.4882 C   0  0
   91.6895   -6.1251   15.2372 C   0  0
   92.7225   -5.4507   14.5745 C   0  0
   92.7704   -5.3901   13.1864 C   0  0
   91.7791   -6.0152   12.4299 C   0  0
   90.7430   -6.6927   13.0671 C   0  0
   90.6727   -6.7614   14.4670 C   0  0
   87.2828   -8.9376   11.1433 C   0  0
   86.1827   -9.5435   10.5265 C   0  0
   85.1223  -10.0316   11.2897 C   0  0
   84.0222  -10.6197   10.6612 C   0  0
   84.0832  -10.3011   14.8465 O   0  0
  102.8587   -0.3192   28.4500 O   0  0
  100.8518    0.9112   29.1490 O   0  0
  102.3132    1.9190   27.2541 O   0  0
   99.2387   -4.2149   28.1641 O   0  0
   97.1755   -3.6702   26.9625 O   0  0
   99.0117   -5.0366   25.7200 O   0  0
   93.8522   -4.4852   10.9201 O   0  0
   95.3805   -5.2422   12.6812 O   0  0
   94.1561   -2.9670   12.9991 O   0  0
   88.6337   -6.8168   10.2466 O   0  0
   89.8988   -8.8973   10.5838 O   0  0
   88.3233   -8.7402    8.5352 O   0  5
  101.7106    0.5270   27.9793 S   0  0
   98.6638   -3.8264   26.8319 S   0  0
   94.0839   -4.5343   12.4055 S   0  0
   88.5876   -8.3153   10.1377 S   0  0
  1  8  1  0
  9 10  1  0
 10 48  1  0
 11 12  1  0
 13  2  1  0
 13 44  1  0
 14  3  1  0
 15 16  1  0
 17  4  1  0
 17 38  1  0
 18  5  1  0
 19 20  1  0
 21  6  1  0
 21 32  1  0
 22  7  1  0
 23 24  1  0
 25 26  1  0
 27 28  1  0
 29 30  1  0
 30 25  1  0
 31 22  1  0
 33 34  1  0
 35 36  1  0
 37 18  1  0
 37 32  1  0
 39 40  1  0
 41 42  1  0
 43 14  1  0
 43 38  1  0
 45 46  1  0
 46 11  1  0
 47  8  1  0
 61 27  1  0
 61 51  1  0
 62 29  1  0
 62 54  1  0
 63 40  1  0
 63 57  1  0
 64 44  1  0
 64 60  1  0
  2  3  2  0
  4  5  2  0
  6  7  2  0
  8  9  2  0
 10 11  2  0
 12 13  2  0
 14 15  2  0
 16 17  2  0
 18 19  2  0
 20 21  2  0
 22 23  2  0
 24 25  2  0
 26 27  2  0
 28 29  2  0
 30 31  2  0
 32 33  2  0
 34 35  2  0
 36 37  2  0
 38 39  2  0
 40 41  2  0
 42 43  2  0
 44 45  2  0
 46 47  2  0
 61 49  2  0
 61 50  2  0
 62 52  2  0
 62 53  2  0
 63 55  2  0
 63 56  2  0
 64 58  2  0
 64 59  2  0
M  CHG  1  60  -1
M  END
> <Name>
CHEMBL2028296

> <rmsd>
0.500015736

$$$$
CHEMBL2058767 PubChem-11593393
  SciTegic06052412183D

 91102  0  0  0  0            999 V2000
  101.5451   -5.9408   23.5099 C   0  0
  101.4692   -6.4156   24.9515 C   0  0
  100.0287   -6.5431   25.4151 C   0  0
  100.0333   -5.8937   26.7800 C   0  0
  101.5012   -5.6437   27.0416 C   0  0
  102.1639   -4.3573   29.0938 C   0  0
  101.7657   -2.3474   28.5117 C   0  0
  101.5963   -0.9736   28.3950 C   0  0
  100.7998   -1.3317   26.1728 C   0  0
  101.4468   -3.1572   27.4780 C   0  0
   99.3667   -3.2166   20.8662 C   0  0
   99.1655   -2.6945   19.4654 C   0  0
   97.7346   -2.2128   19.4559 C   0  0
   96.9455   -2.9752   18.4066 C   0  0
   93.8831   -3.5766   17.7910 C   0  0
   91.6746   -3.4654   17.5138 C   0  0
   90.9129   -2.1632   17.5992 C   0  0
   89.4936   -2.5695   17.9091 C   0  0
   88.5044   -1.7933   17.0459 C   0  0
   87.4556   -2.6288   13.2193 C   0  0
   86.3262   -2.4864   11.3107 C   0  0
   85.7591   -1.1207   11.0051 C   0  0
   84.4104   -1.4368   10.4082 C   0  0
   84.0214   -0.3584    9.4136 C   0  0
   85.4650   -3.4214   10.4793 C   0  0
   86.4036   -4.0721    8.2120 C   0  0
   87.7602   -5.6154    8.7612 C   0  0
   88.7058   -6.6274    8.8411 C   0  0
   88.3713   -6.6615   11.2038 C   0  0
   87.1652   -5.1651    9.8827 C   0  0
   90.6136   -4.5276   17.7484 C   0  0
   90.2055   -6.8732   16.9695 C   0  0
   90.8625   -6.8265   14.9519 C   0  0
   91.1703   -7.0578   13.6199 C   0  0
   91.9222   -4.7968   13.4707 C   0  0
   91.0919   -5.6090   15.4946 C   0  0
   98.1671   -2.6993   21.6238 C   0  0
   97.2411   -4.9537   22.2936 C   0  0
   97.0937   -4.7420   24.3983 C   0  0
   96.8838   -4.8606   25.7666 C   0  0
   97.7302   -2.6486   26.0158 C   0  0
   97.6045   -3.5991   23.8949 C   0  0
   99.6698   -7.8919   25.4711 O   0  0
   99.5078   -6.7308   27.7710 O   0  0
  102.1560   -5.5364   25.8033 O   0  0
  100.9332   -4.6905   23.3675 O   0  0
  102.9107   -3.7270   21.9347 O   0  0
  101.2800   -5.3159   20.6635 O   0  0
  100.5508   -2.7389   21.4463 O   0  0
   96.3535   -2.0868   17.5051 O   0  0
   94.6044   -1.4751   19.3824 O   0  0
   92.6739   -3.5582   18.4944 O   0  0
   88.7600   -2.0194   15.6887 O   0  0
   86.1410   -1.7678   15.4515 O   0  0
   86.1869   -2.8221   12.6616 O   0  0
   82.6581   -0.4442    9.1197 O   0  0
   81.8452    0.7622   11.3085 O   0  0
   82.8864    2.3077    9.4635 O   0  0
   80.3948    1.1428    9.1734 O   0  0
   84.5060   -2.6804    9.7597 O   0  0
   85.6086   -0.3334   12.1519 O   0  0
   87.0751   -4.2138   15.5595 O   0  0
   89.3303   -3.9517   17.6968 O   0  0
   91.3901   -1.3233   18.6041 O   0  0
   93.9546   -0.8662   16.9302 O   0  0
   97.1417   -2.4008   20.7168 O   0  0
  100.0070   -1.6131   19.1915 O   0  0
  101.6886   -4.4313   27.8248 N   0  0
  102.2229   -3.0730   29.5538 N   0  0
  101.9010   -0.0928   29.4770 N   0  0
  101.1112   -0.4894   27.2135 N   0  0
  100.9734   -2.6858   26.2964 N   0  0
   86.3044   -4.1895    9.5669 N   0  0
   87.3040   -4.9499    7.6777 N   0  0
   89.3448   -7.1415    7.6764 N   0  0
   88.9930   -7.1361   10.0759 N   0  0
   87.4421   -5.6608   11.1161 N   0  0
   90.6916   -5.6161   16.7770 N   0  0
   90.3051   -7.6520   15.8573 N   0  0
   90.9580   -8.3305   13.0136 N   0  0
   91.7040   -6.0242   12.8993 N   0  0
   91.6019   -4.5763   14.7829 N   0  0
   97.7003   -3.7064   22.5676 N   0  0
   96.8551   -5.6283   23.4160 N   0  0
   96.3565   -6.0551   26.3358 N   0  0
   97.2212   -3.8066   26.5548 N   0  0
   97.9301   -2.5376   24.6700 N   0  0
  101.4539   -4.1152   21.8547 P   0  0
   94.7202   -1.9698   17.9559 P   0  0
   87.3183   -2.6241   15.0327 P   0  0
   81.9492    0.9362    9.8096 P   0  0
  1 46  1  0
  2  1  1  0
  2  3  1  0
  2 45  1  0
  3 43  1  0
  3  4  1  0
  4 44  1  0
  4  5  1  0
  5 45  1  0
  5 68  1  0
  7 69  1  0
  8 70  1  0
  8 71  1  0
  9 72  1  0
 10 68  1  0
 10  7  1  0
 11 49  1  0
 11 12  1  0
 12 13  1  0
 12 67  1  0
 13 14  1  0
 13 66  1  0
 14 50  1  0
 15 52  1  0
 16 52  1  0
 16 17  1  0
 17 18  1  0
 17 64  1  0
 18 19  1  0
 18 63  1  0
 19 53  1  0
 20 55  1  0
 21 55  1  0
 21 22  1  0
 22 23  1  0
 22 61  1  0
 23 24  1  0
 23 60  1  0
 24 56  1  0
 25 60  1  0
 25 73  1  0
 25 21  1  0
 27 74  1  0
 28 75  1  0
 28 76  1  0
 29 77  1  0
 30 73  1  0
 30 27  1  0
 31 63  1  0
 31 78  1  0
 31 16  1  0
 33 79  1  0
 34 80  1  0
 34 81  1  0
 35 82  1  0
 36 78  1  0
 36 33  1  0
 37 66  1  0
 37 83  1  0
 37 11  1  0
 39 84  1  0
 40 85  1  0
 40 86  1  0
 41 87  1  0
 42 83  1  0
 42 39  1  0
 68  6  1  0
 73 26  1  0
 78 32  1  0
 83 38  1  0
 88 46  1  0
 88 48  1  0
 88 49  1  0
 89 50  1  0
 89 15  1  0
 89 65  1  0
 90 53  1  0
 90 20  1  0
 90 62  1  0
 91 56  1  0
 91 58  1  0
 91 59  1  0
  6 69  2  0
  7  8  2  0
  9 71  2  0
 10 72  2  0
 26 74  2  0
 27 28  2  0
 29 76  2  0
 30 77  2  0
 32 79  2  0
 33 34  2  0
 35 81  2  0
 36 82  2  0
 38 84  2  0
 39 40  2  0
 41 86  2  0
 42 87  2  0
 88 47  2  0
 89 51  2  0
 90 54  2  0
 91 57  2  0
M  END
> <Name>
CHEMBL2058767 PubChem-11593393

> <rmsd>
0.653991818

$$$$
CHEMBL4858896
  SciTegic06052412183D

 92 97  0  0  0  0            999 V2000
  101.4636   -4.5093   32.3199 N   0  0
   98.2449   -4.7624   30.9216 N   0  0
   95.7170   -3.4865   28.8670 N   0  0
   95.8565   -5.4336   25.9055 N   0  0
   97.7087   -5.9691   22.6302 N   0  0
   97.3478   -6.1861   19.1681 N   0  0
   96.0279   -7.3996   15.9288 N   0  0
   94.3793   -9.4119   13.6402 N   0  0
   93.4673   -8.7651   10.3078 N   0  0
   90.2133   -5.3813    9.2299 N   0  0
   88.4076   -6.5348    9.9004 N   0  0
   90.8695   -5.9357   13.3506 N   0  0
   97.3253   -3.7573   17.5228 N   0  0
   96.5848   -3.0849   15.3794 N   0  0
   95.0825   -2.8027   17.1580 N   0  0
   95.3119   -0.7395   25.7535 N   0  0
   96.2970    0.4876   27.3568 N   0  0
  100.4702   -5.4658   31.8673 C   0  0
  100.6302   -6.7676   32.6313 C   0  0
   99.0961   -4.9123   32.0569 C   0  0
   96.8862   -4.2440   31.0087 C   0  0
   96.1593   -4.5418   29.7272 C   0  0
   95.0516   -3.7314   27.5921 C   0  0
   96.0364   -4.1665   26.5515 C   0  0
   96.7897   -6.0823   24.9800 C   0  0
   97.0476   -5.3151   23.7144 C   0  0
   98.0710   -5.2771   21.4019 C   0  0
   98.2213   -6.2683   20.2941 C   0  0
   97.4182   -7.1170   18.0485 C   0  0
   96.0912   -7.2195   17.3472 C   0  0
   94.7635   -7.4904   15.2166 C   0  0
   94.9660   -8.1329   13.8831 C   0  0
   94.3397  -10.0217   12.3163 C   0  0
   93.2038   -9.4272   11.5448 C   0  0
   92.4166   -8.1108    9.5424 C   0  0
   92.8746   -7.8709    8.1410 C   0  0
   92.0197   -6.8021   10.2125 C   0  0
   90.5973   -6.4664    9.9203 C   0  0
   88.8682   -5.4558    9.2321 C   0  0
   89.5014   -7.1825   10.3399 C   0  0
   94.2002  -11.5478   12.4281 C   0  0
   94.2170  -12.1856   11.0485 C   0  0
   95.3395  -12.1526   13.2356 C   0  0
   94.9829  -12.1901   14.7096 C   0  0
   94.1273   -6.1076   15.0888 C   0  0
   92.7095   -6.2032   14.6217 C   0  0
   92.1920   -5.6461   13.4590 C   0  0
   90.5711   -6.6641   14.4414 C   0  0
   91.6660   -6.8468   15.2410 C   0  0
   91.6078   -7.5761   16.4275 C   0  0
   90.3647   -8.1272   16.7881 C   0  0
   89.2307   -7.9373   15.9680 C   0  0
   89.3253   -7.1953   14.7759 C   0  0
   98.6086   -6.7985   17.1309 C   0  0
   98.4308   -5.5472   16.2681 C   0  0
   98.6140   -4.2651   17.0697 C   0  0
   96.3361   -3.2255   16.6380 C   0  0
   99.3585   -4.4824   21.6092 C   0  0
   99.6161   -3.5242   20.4496 C   0  0
   98.7456   -2.3069   20.4992 C   0  0
   98.0456   -6.6348   25.6709 C   0  0
   98.9702   -5.5933   26.2110 C   0  0
   99.7054   -4.7659   25.3521 C   0  0
  100.5662   -3.7949   25.8741 C   0  0
  100.6965   -3.6523   27.2585 C   0  0
   99.9711   -4.4856   28.1177 C   0  0
   99.1131   -5.4584   27.5960 C   0  0
   94.2326   -2.5125   27.1506 C   0  0
   95.0584   -1.2795   26.9558 C   0  0
   96.0735    0.3376   26.0337 C   0  0
   95.6547   -0.5365   27.9487 C   0  0
   96.9209   -2.7487   31.3314 C   0  0
   95.6070   -2.2794   31.8670 C   0  0
   95.1327   -2.7508   33.0958 C   0  0
   93.9074   -2.2988   33.5923 C   0  0
   93.1552   -1.3717   32.8657 C   0  0
   93.6316   -0.8910   31.6429 C   0  0
   94.8562   -1.3434   31.1461 C   0  0
   98.6996   -4.5671   33.2041 O   0  0
   95.9454   -5.7426   29.4123 O   0  0
   97.0056   -3.4216   26.2536 O   0  0
   96.6926   -4.1126   23.6020 O   0  0
   99.0939   -7.1781   20.3644 O   0  0
   95.0284   -7.1989   18.0253 O   0  0
   95.6394   -7.5548   12.9871 O   0  0
   92.0260   -9.5088   11.9891 O   0  0
   93.8744   -7.1371    7.9108 O   0  0
   92.1876   -8.4549    7.0842 O   0  0
   98.7784   -1.4846   19.5479 O   0  0
   97.9040   -2.0680   21.5809 O   0  0
  101.5363   -2.6788   27.7859 O   0  0
   91.9372   -0.9280   33.3601 O   0  0
 10 39  1  0
 12 48  1  0
 13 57  1  0
 16 70  1  0
 18  1  1  0
 18 19  1  0
 18 20  1  0
 20  2  1  0
 21  2  1  0
 21 22  1  0
 21 72  1  0
 22  3  1  0
 23  3  1  0
 23 24  1  0
 23 68  1  0
 24  4  1  0
 25  4  1  0
 25 26  1  0
 25 61  1  0
 26  5  1  0
 27  5  1  0
 27 28  1  0
 27 58  1  0
 28  6  1  0
 29  6  1  0
 29 30  1  0
 29 54  1  0
 30  7  1  0
 31  7  1  0
 31 32  1  0
 31 45  1  0
 32  8  1  0
 33  8  1  0
 33 34  1  0
 33 41  1  0
 34  9  1  0
 35  9  1  0
 35 36  1  0
 35 37  1  0
 36 88  1  0
 37 38  1  0
 38 10  1  0
 40 11  1  0
 41 42  1  0
 41 43  1  0
 43 44  1  0
 45 46  1  0
 47 12  1  0
 49 50  1  0
 49 46  1  0
 51 52  1  0
 53 48  1  0
 54 55  1  0
 55 56  1  0
 56 13  1  0
 57 15  1  0
 58 59  1  0
 59 60  1  0
 60 90  1  0
 61 62  1  0
 63 64  1  0
 65 66  1  0
 65 91  1  0
 67 62  1  0
 68 69  1  0
 69 16  1  0
 71 17  1  0
 72 73  1  0
 74 75  1  0
 76 77  1  0
 76 92  1  0
 78 73  1  0
 20 79  2  0
 22 80  2  0
 24 81  2  0
 26 82  2  0
 28 83  2  0
 30 84  2  0
 32 85  2  0
 34 86  2  0
 36 87  2  0
 39 11  2  0
 40 38  2  0
 46 47  2  0
 48 49  2  0
 50 51  2  0
 52 53  2  0
 57 14  2  0
 60 89  2  0
 62 63  2  0
 64 65  2  0
 66 67  2  0
 70 17  2  0
 71 69  2  0
 73 74  2  0
 75 76  2  0
 77 78  2  0
M  END
> <Name>
CHEMBL4858896

> <rmsd>
0.576730192

$$$$
CHEMBL536192 CHEMBL587105 PubChem-44533251 PubChem-44533252
  SciTegic06052412183D

 34 37  0  0  0  0            999 V2000
   97.5460   -2.1414   26.5644 C   0  0
   98.3111   -4.0836   25.4681 C   0  0
   96.1791   -3.1515   24.8791 C   0  0
   96.7327   -2.2603   23.7629 C   0  0
   97.2801   -3.1134   22.6355 C   0  0
   97.2980   -2.2905   20.3006 C   0  0
   96.2536   -3.1532   19.9284 C   0  0
   95.7642   -3.1632   18.6189 C   0  0
   94.0550   -4.2040   17.0145 C   0  0
   92.2518   -5.4720   15.6895 C   0  0
   92.4609   -4.7623   14.5030 C   0  0
   91.7190   -5.0475   13.3596 C   0  0
   90.7430   -6.0535   13.3577 C   0  0
   90.0100   -6.3091   12.0878 C   0  0
   89.7425   -5.2504   11.2068 C   0  0
   89.0805   -5.4981   10.0025 C   0  0
   88.9581   -7.8125   10.5060 C   0  0
   89.6180   -7.6042   11.7187 C   0  0
   90.5044   -6.7718   14.5584 C   0  0
   89.5055   -7.7567   14.6385 C   0  0
   89.2736   -8.4506   15.8269 C   0  0
   90.0342   -8.1670   16.9604 C   0  0
   91.0233   -7.1847   16.9089 C   0  0
   91.2672   -6.4762   15.7223 C   0  0
   96.3292   -2.2993   17.6705 C   0  0
   97.3678   -1.4380   18.0303 C   0  0
   97.8534   -1.4311   19.3406 C   0  0
   97.1275   -3.4031   25.9718 N   0  0
   94.6986   -4.0642   18.2874 N   0  0
   93.0178   -5.1831   16.8726 N   0  0
   88.7030   -6.7635    9.6799 N   0  0
   97.7913   -2.2733   21.6096 O   0  0
   94.3932   -3.4792   16.0403 O   0  0
   99.4231   -0.1090   19.8338 I   0  0
  1 28  1  0
  2 28  1  0
  3 28  1  0
  3  4  1  0
  4  5  1  0
  5 32  1  0
  6 32  1  0
  7  8  1  0
  8 29  1  0
  9 30  1  0
 11 12  1  0
 13 14  1  0
 13 19  1  0
 15 16  1  0
 17 31  1  0
 18 14  1  0
 20 21  1  0
 22 23  1  0
 24 10  1  0
 24 19  1  0
 25 26  1  0
 27 34  1  0
 27  6  1  0
 29  9  1  0
 30 10  1  0
  6  7  2  0
  8 25  2  0
  9 33  2  0
 10 11  2  0
 12 13  2  0
 14 15  2  0
 16 31  2  0
 17 18  2  0
 19 20  2  0
 21 22  2  0
 23 24  2  0
 26 27  2  0
M  END
> <Name>
CHEMBL536192 CHEMBL587105 PubChem-44533251 PubChem-44533252

> <rmsd>
0.616163194

$$$$
CHEMBL5084858
  SciTegic06052412183D

 41 46  0  0  0  0            999 V2000
   98.1925   -4.3504   27.0870 C   0  0
   96.9149   -3.8809   25.3499 C   0  0
   95.9389   -2.9153   24.7023 C   0  0
   95.9476   -1.3105   23.1844 C   0  0
   96.9475   -1.1500   22.0491 C   0  0
   96.9039   -3.4671   21.1385 C   0  0
   97.5915   -4.6939   20.9680 C   0  0
   96.9571   -5.7955   20.3640 C   0  0
   95.6405   -5.6296   19.9463 C   0  0
   94.9744   -4.4545   20.1047 C   0  0
   93.6965   -5.8401   19.1752 C   0  0
   92.5053   -6.4251   18.5033 C   0  0
   91.5036   -6.5187   16.1938 C   0  0
   89.4810   -7.7266   15.7629 C   0  0
   90.5606   -6.5986   14.0208 C   0  0
   91.9475   -5.4265   12.9071 C   0  0
   91.5334   -6.1698   14.8520 C   0  0
   90.0355   -6.3485   11.5890 C   0  0
   88.8665   -7.0796   11.4770 C   0  0
   90.3401   -5.8499   10.3391 C   0  0
   89.2732   -6.0042    8.1060 C   0  0
   87.3041   -8.9122   15.3605 C   0  0
   86.7041  -10.2451   15.8087 C   0  0
   87.5889  -10.1789   17.8757 C   0  0
   88.2963   -8.8378   17.6780 C   0  0
   95.5671   -3.3430   20.6949 C   0  0
   97.3621   -3.3587   26.5639 O   0  0
   96.6025   -1.7420   24.3384 O   0  0
   97.5706   -2.3951   21.7451 O   0  0
   86.3717  -10.1844   17.1731 O   0  0
   93.7303   -4.5559   19.6172 N   0  0
   94.8514   -6.5338   19.3497 N   0  0
   92.5228   -6.0791   17.0918 N   0  0
   90.4655   -7.2992   16.6228 N   0  0
   89.5301   -7.3724   14.4399 N   0  0
   90.7991   -6.1424   12.7845 N   0  0
   92.4307   -5.4236   14.1819 N   0  0
   88.4812   -7.0186   10.1872 N   0  0
   89.3639   -6.2869    9.5260 N   0  0
   88.4113   -8.5511   16.2473 N   0  0
   98.8734   -4.8167   21.3914 F   0  0
  1 27  1  0
  2 27  1  0
  2  3  1  0
  3 28  1  0
  4 28  1  0
  4  5  1  0
  5 29  1  0
  6 29  1  0
  7  8  1  0
  7 41  1  0
  9 10  1  0
  9 32  1  0
 10 31  1  0
 12 11  1  0
 12 33  1  0
 14 34  1  0
 14 40  1  0
 15 35  1  0
 15 36  1  0
 17 37  1  0
 17 13  1  0
 18 19  1  0
 21 39  1  0
 22 40  1  0
 22 23  1  0
 23 30  1  0
 24 30  1  0
 24 25  1  0
 25 40  1  0
 26  6  1  0
 31 11  1  0
 33 13  1  0
 36 16  1  0
 36 18  1  0
 39 38  1  0
 39 20  1  0
  6  7  2  0
  8  9  2  0
 10 26  2  0
 11 32  2  0
 13 34  2  0
 14 35  2  0
 16 37  2  0
 17 15  2  0
 19 38  2  0
 20 18  2  0
M  END
> <Name>
CHEMBL5084858

> <rmsd>
0.574800372

$$$$
CHEMBL164665 PubChem-44377819
  SciTegic06052412183D

 49 55  0  0  0  0            999 V2000
   89.3158   -3.2727   10.7655 C   0  0
   89.2219   -4.7558   10.6669 C   0  0
   89.4981   -6.8262   10.9697 C   0  0
   91.0264   -5.4074   12.3058 C   0  0
   93.0217   -4.6214   13.5549 C   0  0
   92.5336   -5.8294   14.0249 C   0  0
   91.3843   -6.2787   13.3428 C   0  0
   90.5842   -7.4743   13.7475 C   0  0
   90.3552   -7.7492   15.1846 C   0  0
   90.0308   -6.6790   16.0325 C   0  0
   89.7949   -6.8912   17.3926 C   0  0
   89.8796   -8.1795   17.9222 C   0  0
   90.2030   -9.2548   17.0925 C   0  0
   90.4391   -9.0529   15.7280 C   0  0
   90.0885   -8.1278   11.4241 C   0  0
   89.3991   -9.3166   10.7794 C   0  0
   93.1777   -6.5120   15.1926 C   0  0
   94.5975   -5.9713   15.4283 C   0  0
   93.8046   -3.9009   16.4140 C   0  0
   94.4159   -4.0286   17.7694 C   0  0
   93.7459   -4.7455   18.7648 C   0  0
   94.3087   -4.8682   20.0376 C   0  0
   95.5425   -4.2735   20.3160 C   0  0
   96.2219   -3.5481   19.3251 C   0  0
   97.5395   -2.9283   19.6127 C   0  0
   97.0010   -1.3328   22.8323 C   0  0
   97.8234   -2.2072   23.7647 C   0  0
   98.0034   -1.5327   25.1168 C   0  0
   96.6970   -1.4965   25.9028 C   0  0
   96.2841   -2.8603   26.3449 C   0  0
   98.6685   -3.0747   18.6608 C   0  0
   98.6350   -4.0280   17.6327 C   0  0
   99.7140   -4.1616   16.7576 C   0  0
  100.8276   -3.3374   16.9200 C   0  0
   99.8127   -2.2725   18.7845 C   0  0
   95.6480   -3.4287   18.0512 C   0  0
   94.2737   -3.9759   14.0702 C   0  0
   88.3401   -5.3892    9.8699 N   0  0
   88.5185   -6.6903   10.0531 N   0  0
   89.9607   -5.6330   11.3733 N   0  0
   89.9962   -8.2455   12.8748 N   0  0
   94.6656   -4.4966   15.3903 N   0  0
   97.7303   -2.2508   20.7078 N   0  0
  100.8536   -2.4177   17.9204 N   0  0
   92.0985   -4.1054   12.2530 S   0  0
   90.9032  -10.4485   14.7627 Cl  0  0
   96.7302   -2.0329   21.6303 O   0  0
   97.0019   -3.5154   27.1461 O   0  0
   95.0933   -3.4030   25.8819 O   0  0
  1  2  1  0
  3 40  1  0
  4 45  1  0
  5 45  1  0
  6  7  1  0
  7  8  1  0
  8  9  1  0
 10 11  1  0
 12 13  1  0
 14 46  1  0
 14  9  1  0
 15 41  1  0
 15 16  1  0
 15  3  1  0
 17  6  1  0
 17 18  1  0
 18 42  1  0
 19 42  1  0
 19 20  1  0
 21 22  1  0
 23 24  1  0
 24 25  1  0
 25 31  1  0
 26 47  1  0
 26 27  1  0
 27 28  1  0
 28 29  1  0
 29 30  1  0
 30 49  1  0
 32 33  1  0
 34 44  1  0
 35 31  1  0
 36 20  1  0
 37 42  1  0
 37  5  1  0
 38 39  1  0
 40  4  1  0
 40  2  1  0
 43 47  1  0
  2 38  2  0
  3 39  2  0
  5  6  2  0
  7  4  2  0
  8 41  2  0
  9 10  2  0
 11 12  2  0
 13 14  2  0
 20 21  2  0
 22 23  2  0
 24 36  2  0
 25 43  2  0
 30 48  2  0
 31 32  2  0
 33 34  2  0
 35 44  2  0
M  END
> <Name>
CHEMBL164665 PubChem-44377819

> <rmsd>
0.654313385

$$$$
CHEMBL407662 PubChem-44413915
  SciTegic06052412183D

 71 79  0  0  0  0            999 V2000
   97.3375   -3.2358   26.7462 O   0  0
   99.2212   -3.4470   24.9323 O   0  0
   96.7881   -4.0825   24.1559 O   0  0
   95.0540   -1.3207   22.6127 O   0  0
   94.6102   -2.9952   19.6747 O   0  0
   94.3015   -1.8849   17.3189 O   0  0
   94.9735   -4.4092   17.3208 O   0  0
   93.5031   -6.5558   18.0809 O   0  0
   94.3433   -9.6110   16.8255 O   0  0
   94.1828  -11.9181   15.6057 O   0  0
   92.2166  -10.2396   15.1764 O   0  0
   92.1696   -8.4435   12.9278 O   0  0
   89.8534   -8.0386   10.8247 O   0  0
   90.6878   -6.8883    8.6075 O   0  0
   88.1079   -6.8934    9.0233 O   0  0
   89.4617   -9.1842    8.3268 O   0  0
   89.4815  -10.4177   11.8231 O   0  0
   94.7666   -9.8576   14.1029 O   0  0
   96.4690   -8.1999   17.1765 O   0  0
   96.7736   -2.4248   17.9717 O   0  0
   97.5596   -2.5385   21.3760 O   0  0
   98.2446   -5.6820   25.8652 O   0  0
   97.9333   -4.0849   25.4077 P   0  0
   95.1468   -2.8950   18.0619 P   0  0
   93.8842  -10.4467   15.4245 P   0  0
   89.5681   -7.7289    9.1809 P   0  0
   96.4931   -2.7389   23.9233 C   0  0
   95.5677   -2.6184   22.7225 C   0  0
   96.2310   -2.9726   21.4029 C   0  0
   95.4443   -2.1581   20.4180 C   0  0
   94.6001   -1.2414   21.2853 C   0  0
   93.6917    0.8692   20.2961 C   0  0
   91.5625    1.4220   19.5247 C   0  0
   93.3436    2.9976   19.3171 C   0  0
   94.1808    2.0695   19.9172 C   0  0
   95.7813    0.9245   20.7137 C   0  0
   95.5651   -5.3134   18.2084 C   0  0
   94.9004   -6.6781   18.1180 C   0  0
   95.3489   -7.4183   16.8849 C   0  0
   94.1477   -8.2569   16.5299 C   0  0
   93.0417   -7.7016   17.4095 C   0  0
   91.7715   -6.5492   15.5579 C   0  0
   92.4302   -5.0634   13.8856 C   0  0
   90.1807   -5.8565   13.9436 C   0  0
   90.5137   -6.5956   15.0691 C   0  0
   90.6311   -7.9167   16.7283 C   0  0
   91.9713  -10.6385   13.8624 C   0  0
   91.2796   -9.5177   13.1107 C   0  0
   90.8177  -10.0163   11.7653 C   0  0
   91.0084   -8.8306   10.8662 C   0  0
   92.1004   -8.0566   11.5731 C   0  0
   94.1008   -7.4114   10.2102 C   0  0
   94.6512   -5.4313    9.1077 C   0  0
   96.1266   -7.3030    8.9852 C   0  0
   95.2319   -8.0087    9.7783 C   0  0
   94.1266   -9.4225   10.9138 C   0  0
   94.6804    0.1310   20.8041 N   0  0
   92.3971    0.5111   20.1110 N   0  0
   92.0348    2.6510   19.1324 N   0  0
   95.5031    2.1417   20.1663 N   0  0
   93.8272    4.2649   18.8879 N   0  0
   91.8700   -7.3774   16.6040 N   0  0
   92.7503   -5.8013   14.9919 N   0  0
   91.1589   -5.0959   13.3690 N   0  0
   89.7612   -7.4514   15.7865 N   0  0
   88.8728   -5.9005   13.3853 N   0  0
   93.3865   -8.2839   10.9253 N   0  0
   93.7755   -6.1358    9.8880 N   0  0
   95.8137   -6.0120    8.6649 N   0  0
   95.2835   -9.2839   10.2060 N   0  0
   97.3237   -7.9017    8.5024 N   0  0
 23  1  1  0
 23  3  1  0
 23 22  1  0
 24  5  1  0
 24  7  1  0
 24 20  1  0
 25  9  1  0
 25 11  1  0
 25 18  1  0
 26 13  1  0
 26 15  1  0
 26 16  1  0
 27  3  1  0
 28 27  1  0
 28 29  1  0
 28  4  1  0
 29 30  1  0
 29 21  1  0
 30 31  1  0
 30  5  1  0
 31 57  1  0
 31  4  1  0
 33 58  1  0
 34 59  1  0
 34 61  1  0
 35 60  1  0
 35 32  1  0
 36 57  1  0
 37  7  1  0
 38 37  1  0
 38 39  1  0
 38  8  1  0
 39 40  1  0
 39 19  1  0
 40 41  1  0
 40  9  1  0
 41 62  1  0
 41  8  1  0
 43 63  1  0
 44 64  1  0
 44 66  1  0
 45 65  1  0
 45 42  1  0
 46 62  1  0
 47 11  1  0
 48 47  1  0
 48 49  1  0
 48 12  1  0
 49 50  1  0
 49 17  1  0
 50 51  1  0
 50 13  1  0
 51 67  1  0
 51 12  1  0
 53 68  1  0
 54 69  1  0
 54 71  1  0
 55 70  1  0
 55 52  1  0
 56 67  1  0
 57 32  1  0
 62 42  1  0
 67 52  1  0
 23  2  2  0
 24  6  2  0
 25 10  2  0
 26 14  2  0
 32 58  2  0
 33 59  2  0
 34 35  2  0
 36 60  2  0
 42 63  2  0
 43 64  2  0
 44 45  2  0
 46 65  2  0
 52 68  2  0
 53 69  2  0
 54 55  2  0
 56 70  2  0
M  END
> <Name>
CHEMBL407662 PubChem-44413915

> <rmsd>
0.639649808

$$$$
CHEMBL2058485 PubChem-70694739
  SciTegic06052412183D

 93104  0  0  0  0            999 V2000
   83.2233   -5.0420    3.0209 P   0  0
   88.8828   -5.6702    9.4038 P   0  0
   90.0155   -2.7426   16.5629 P   0  0
   96.5914   -2.0817   21.8504 P   0  0
   83.1418   -6.3314    2.2357 O   0  0
   84.8433   -4.5953    3.1815 O   0  0
   82.3993   -3.8241    2.1894 O   0  0
   83.1213   -6.2905    5.3445 O   0  0
   85.3084   -6.4153    9.2255 O   0  0
   87.9553   -5.1457    8.0754 O   0  0
   88.5052   -7.0677    9.8566 O   0  0
   87.3311   -4.5358   11.2022 O   0  0
   85.7580   -3.3875   15.4598 O   0  0
   89.2612   -3.2956   15.1458 O   0  0
   90.9620   -3.8071   17.0789 O   0  0
   91.4041   -0.6237   17.3298 O   0  0
   95.5304   -0.2781   18.9883 O   0  0
   95.2446   -2.6713   20.9984 O   0  0
   97.6974   -1.7724   20.8708 O   0  0
   96.1581   -3.6698   23.9140 O   0  0
   95.2561   -6.2203   26.2962 O   0  0
   94.3156   -3.3478   28.0061 O   0  0
   97.3052   -3.8705   27.3380 O   0  0
   96.1998   -0.6970   22.7368 O   0  0
   92.2565   -1.1093   19.9011 O   0  0
   88.8758   -2.3615   17.7676 O   0  0
   87.6527   -5.4519   13.7938 O   0  0
   90.5085   -5.6640    8.9506 O   0  0
   85.8097   -6.8416    5.8174 O   0  0
   82.4735   -5.2547    4.6638 C   0  0
   83.7946   -5.6575    6.3911 C   0  0
   84.9259   -6.5495    6.8777 C   0  0
   85.6784   -5.8701    7.9995 C   0  0
   87.1063   -6.2002    7.7091 C   0  0
   88.6619   -4.5128   10.7860 C   0  0
   87.3047   -3.6349   12.2732 C   0  0
   86.8379   -4.3293   13.5486 C   0  0
   86.9428   -3.3549   14.7137 C   0  0
   88.0627   -3.9093   15.5437 C   0  0
   90.9907   -1.2616   16.1581 C   0  0
   92.7143   -1.0666   17.5459 C   0  0
   93.1771   -0.6592   18.9319 C   0  0
   94.5432   -1.2410   19.2139 C   0  0
   94.4633   -1.5549   20.6740 C   0  0
   97.1620   -3.3724   22.9939 C   0  0
   96.6349   -3.1912   25.1406 C   0  0
   96.6826   -4.3192   26.1621 C   0  0
   95.2847   -4.8354   26.4718 C   0  0
   95.0771   -4.5161   27.9154 C   0  0
   96.4970   -4.2964   28.4055 C   0  0
   96.5687   -3.6822   30.8469 C   0  0
   96.6046   -1.5580   30.7812 C   0  0
   96.5764   -0.1915   31.0216 C   0  0
   96.5163    0.1516   28.6612 C   0  0
   96.5996   -2.0167   29.5088 C   0  0
   92.9789   -1.8087   20.8841 C   0  0
   92.7888   -4.0808   19.7571 C   0  0
   91.9885   -5.2581   21.3426 C   0  0
   91.5113   -6.2422   22.1960 C   0  0
   91.4058   -4.5948   23.9162 C   0  0
   92.1470   -3.9940   21.7911 C   0  0
   88.0392   -5.3696   15.1354 C   0  0
   89.6641   -6.7648   16.4562 C   0  0
   91.3510   -6.8524   15.1669 C   0  0
   92.5446   -7.1093   14.5092 C   0  0
   91.7203   -5.8375   12.6636 C   0  0
   90.3908   -6.1171   14.5628 C   0  0
   87.0999   -6.4415    6.2085 C   0  0
   86.9891   -4.0094    5.4698 C   0  0
   88.3833   -4.0041    3.8648 C   0  0
   89.1739   -3.7477    2.7526 C   0  0
   89.8707   -6.0280    2.8078 C   0  0
   88.3695   -5.2417    4.4060 C   0  0
   96.5733   -3.3578   29.5253 N   0  0
   96.5801   -2.5866   31.6584 N   0  0
   96.5636    0.3322   32.3447 N   0  0
   96.5325    0.6443   29.9414 N   0  0
   96.5476   -1.1967   28.4342 N   0  0
   92.6447   -3.2303   20.8105 N   0  0
   92.3950   -5.3529   20.0593 N   0  0
   91.3484   -7.5870   21.7632 N   0  0
   91.2311   -5.8859   23.4828 N   0  0
   91.8649   -3.6284   23.0631 N   0  0
   89.3178   -6.0388   15.3638 N   0  0
   90.9197   -7.2948   16.3669 N   0  0
   93.5711   -7.8931   15.1121 N   0  0
   92.7083   -6.5840   13.2574 N   0  0
   90.5425   -5.5966   13.3214 N   0  0
   87.5040   -5.2707    5.4272 N   0  0
   87.5284   -3.1886    4.5231 N   0  0
   89.2016   -2.4638    2.1407 N   0  0
   89.9017   -4.7804    2.2384 N   0  0
   89.0983   -6.2705    3.9076 N   0  0
  1  6  1  0
  1  7  1  0
  1 30  1  0
  2 10  1  0
  2 35  1  0
  2 28  1  0
  3 14  1  0
  3 40  1  0
  3 26  1  0
  4 18  1  0
  4 45  1  0
  4 24  1  0
 30  8  1  0
 31  8  1  0
 32 31  1  0
 32 33  1  0
 32 29  1  0
 33  9  1  0
 33 34  1  0
 34 10  1  0
 34 68  1  0
 35 12  1  0
 36 12  1  0
 37 36  1  0
 37 38  1  0
 37 27  1  0
 38 13  1  0
 38 39  1  0
 39 14  1  0
 39 62  1  0
 40 16  1  0
 41 16  1  0
 42 41  1  0
 42 43  1  0
 42 25  1  0
 43 17  1  0
 43 44  1  0
 44 18  1  0
 44 56  1  0
 45 20  1  0
 46 20  1  0
 47 46  1  0
 47 48  1  0
 47 23  1  0
 48 21  1  0
 48 49  1  0
 49 22  1  0
 49 50  1  0
 50 23  1  0
 50 74  1  0
 52 75  1  0
 53 76  1  0
 53 77  1  0
 54 78  1  0
 55 74  1  0
 55 52  1  0
 56 25  1  0
 56 79  1  0
 58 80  1  0
 59 81  1  0
 59 82  1  0
 60 83  1  0
 61 79  1  0
 61 58  1  0
 62 27  1  0
 62 84  1  0
 64 85  1  0
 65 86  1  0
 65 87  1  0
 66 88  1  0
 67 84  1  0
 67 64  1  0
 68 29  1  0
 68 89  1  0
 70 90  1  0
 71 91  1  0
 71 92  1  0
 72 93  1  0
 73 89  1  0
 73 70  1  0
 74 51  1  0
 79 57  1  0
 84 63  1  0
 89 69  1  0
  1  5  2  0
  2 11  2  0
  3 15  2  0
  4 19  2  0
 51 75  2  0
 52 53  2  0
 54 77  2  0
 55 78  2  0
 57 80  2  0
 58 59  2  0
 60 82  2  0
 61 83  2  0
 63 85  2  0
 64 65  2  0
 66 87  2  0
 67 88  2  0
 69 90  2  0
 70 71  2  0
 72 92  2  0
 73 93  2  0
M  END
> <Name>
CHEMBL2058485 PubChem-70694739

> <rmsd>
0.615294814

$$$$
CHEMBL4647829 PubChem-156021493
  SciTegic06052412183D

 76 83  0  0  0  0            999 V2000
   96.8781   -2.2336   26.2085 C   0  0
   96.8049   -1.6460   27.6133 C   0  0
   97.9047   -2.1851   28.5245 C   0  0
   99.2736   -1.7759   28.0748 C   0  0
  100.2012   -2.7621   27.6894 C   0  0
  101.5019   -2.4060   27.2841 C   0  0
  101.8949   -1.0590   27.2594 C   0  0
  100.9608   -0.1019   27.6503 C   0  0
   99.6819   -0.4358   28.0507 C   0  0
   98.8893    0.7930   28.4036 C   0  0
  101.0724    1.3309   27.7158 C   0  0
   99.4998    3.2993   28.2781 C   0  0
  100.3712    3.9571   29.3536 C   0  0
  100.1366    5.4630   29.4073 C   0  0
  100.4385    6.0635   28.0724 C   0  0
   99.6253    4.0020   26.9459 C   0  0
   95.4276   -3.8948   25.8549 C   0  0
   95.3268   -4.1299   24.3494 C   0  0
   96.1168   -5.3560   23.9083 C   0  0
   97.5874   -5.0156   23.6846 C   0  0
   97.7125   -3.0898   20.6691 C   0  0
   97.4795   -4.3047   21.2906 C   0  0
   97.6105   -2.7949   19.2031 C   0  0
   96.4123   -3.4716   18.5451 C   0  0
   95.0960   -2.9887   19.1450 C   0  0
   93.6899   -4.9256   18.4392 C   0  0
   92.6026   -5.3734   17.6801 C   0  0
   92.2895   -6.7401   17.6174 C   0  0
   93.0837   -7.6592   18.3205 C   0  0
   94.1598   -7.2190   19.0942 C   0  0
   94.4609   -5.8568   19.1574 C   0  0
   91.1517   -7.2115   16.7991 C   0  0
   90.1897   -8.1542   17.1629 C   0  0
   89.3411   -8.2919   16.0730 C   0  0
   90.8315   -6.8020   15.5047 C   0  0
   91.6117   -5.8591   14.6713 C   0  0
   93.0095   -5.9432   14.6200 C   0  0
   93.7424   -5.0516   13.8295 C   0  0
   93.0853   -4.0716   13.0843 C   0  0
   91.6919   -3.9824   13.1296 C   0  0
   90.9607   -4.8747   13.9181 C   0  0
   89.1087   -7.3521   13.7614 C   0  0
   88.0739   -6.2373   13.7599 C   0  0
   87.3945   -6.1253   12.4019 C   0  0
   88.3602   -5.6024   11.3476 C   0  0
   88.9293   -6.7491   10.5242 C   0  0
   90.0377   -6.2325    9.6198 C   0  0
   91.3895   -6.2814   10.2632 C   0  0
   88.1337   -9.1901   16.0313 C   0  0
   88.1788  -10.1417   14.8504 C   0  0
   86.8508   -8.3817   16.0188 C   0  0
   90.0439   -8.8399   18.4651 C   0  0
   90.5519   -8.7817   20.9812 C   0  0
   91.1350   -8.0443   22.0181 C   0  0
   91.1739   -8.5600   23.3169 C   0  0
   90.6315   -9.8206   23.5854 C   0  0
   90.0498  -10.5661   22.5554 C   0  0
   90.0107  -10.0479   21.2581 C   0  0
   99.8336    1.8830   28.1591 N   0  0
  100.1171    5.3439   26.8793 N   0  0
   97.7301   -4.0671   22.5906 N   0  0
   98.1087   -2.8101   22.7503 N   0  0
   98.1131   -2.1875   21.5831 N   0  0
   89.7300   -7.4622   15.0777 N   0  0
   90.5394   -8.2225   19.6607 N   0  0
  102.0945    2.0079   27.4274 O   0  0
  100.9713    7.2007   27.9975 O   0  0
   99.2624    3.4220   25.8884 O   0  0
   96.7473   -3.6253   26.2427 O   0  0
   93.9876   -3.5562   18.4504 O   0  0
   91.5624   -6.8196   11.3889 O   0  0
   92.4766   -5.7399    9.5867 O   0  0
   87.9215   -7.3120    9.7394 O   0  0
   86.3155   -5.2495   12.5026 O   0  0
   89.4665   -9.9590   18.5148 O   0  0
   93.7960   -3.2078   12.3181 F   0  0
  1  2  1  0
  1 69  1  0
  2  3  1  0
  3  4  1  0
  5  6  1  0
  7  8  1  0
  9  4  1  0
 10  9  1  0
 10 59  1  0
 11  8  1  0
 12 59  1  0
 12 13  1  0
 12 16  1  0
 13 14  1  0
 14 15  1  0
 15 60  1  0
 17 69  1  0
 17 18  1  0
 18 19  1  0
 19 20  1  0
 20 61  1  0
 21 63  1  0
 22 61  1  0
 23 21  1  0
 23 24  1  0
 24 25  1  0
 25 70  1  0
 26 70  1  0
 27 28  1  0
 28 32  1  0
 29 30  1  0
 31 26  1  0
 32 33  1  0
 33 52  1  0
 34 64  1  0
 35 36  1  0
 37 38  1  0
 39 40  1  0
 39 76  1  0
 41 36  1  0
 42 64  1  0
 42 43  1  0
 43 44  1  0
 44 45  1  0
 44 74  1  0
 45 46  1  0
 46 47  1  0
 46 73  1  0
 47 48  1  0
 48 72  1  0
 49 34  1  0
 49 50  1  0
 49 51  1  0
 52 65  1  0
 54 55  1  0
 56 57  1  0
 58 53  1  0
 59 11  1  0
 60 16  1  0
 61 62  1  0
 64 35  1  0
 65 53  1  0
  4  5  2  0
  6  7  2  0
  8  9  2  0
 11 66  2  0
 15 67  2  0
 16 68  2  0
 21 22  2  0
 26 27  2  0
 28 29  2  0
 30 31  2  0
 33 34  2  0
 35 32  2  0
 36 37  2  0
 38 39  2  0
 40 41  2  0
 48 71  2  0
 52 75  2  0
 53 54  2  0
 55 56  2  0
 57 58  2  0
 62 63  2  0
M  END
> <Name>
CHEMBL4647829 PubChem-156021493

> <rmsd>
0.658063352

$$$$
CHEMBL1091751
  SciTegic06052412183D

 61 67  0  0  0  0            999 V2000
   91.3898   -5.9876   12.5449 C   0  0
   92.5256   -5.4613   13.1947 C   0  0
   92.6399   -5.5391   14.5849 C   0  0
   91.6390   -6.1366   15.3454 C   0  0
   90.4964   -6.6716   14.7136 C   0  0
   90.3694   -6.5976   13.3163 C   0  0
   89.5012   -7.2741   15.4950 C   0  0
   89.6399   -7.3424   16.8842 C   0  0
   90.7700   -6.8093   17.5128 C   0  0
   91.7697   -6.2076   16.7342 C   0  0
   91.9199   -6.3697   19.7620 C   0  0
   92.8031   -6.1298   22.1570 C   0  0
   93.8430   -5.2484   21.8264 C   0  0
   94.7179   -4.7839   22.8113 C   0  0
   94.5615   -5.1998   24.1504 C   0  0
   93.5194   -6.0782   24.4768 C   0  0
   92.6471   -6.5374   23.4859 C   0  0
   95.4451   -4.7315   25.1370 C   0  0
   96.4897   -3.8401   24.7863 C   0  0
   96.6265   -3.4322   23.4428 C   0  0
   95.7431   -3.9071   22.4700 C   0  0
   98.3062   -3.1472   27.9760 C   0  0
   98.1122   -3.5444   29.3122 C   0  0
   98.9728   -3.1047   30.3193 C   0  0
  100.0418   -2.2644   30.0183 C   0  0
  100.2613   -1.8554   28.7045 C   0  0
   99.3985   -2.2901   27.6654 C   0  0
   99.6595   -1.8538   26.3572 C   0  0
  100.7396   -1.0126   26.0815 C   0  0
  101.5833   -0.5931   27.1126 C   0  0
  101.3407   -1.0134   28.4224 C   0  0
   90.2752   -6.1910    9.0112 C   0  0
   89.1469   -6.6493    8.3110 C   0  0
   89.1097   -6.5361    6.9109 C   0  0
   90.1832   -5.9726    6.2165 C   0  0
   91.3033   -5.5168    6.9140 C   0  0
   91.3498   -5.6252    8.3054 C   0  0
   86.8988   -7.6863    8.3885 C   0  0
   89.2357   -7.1298   12.7069 O   0  0
   92.8526   -5.6904   19.2544 O   0  0
   99.2425   -2.9346   23.2183 O   0  0
   97.7796   -2.0147   21.4856 O   0  0
   97.7523   -0.8829   23.8161 O   0  0
  103.2854    0.3975   25.3113 O   0  0
  104.1273    0.0498   27.5809 O   0  0
  102.5160    2.0512   27.1631 O   0  0
   95.2795   -5.1536   26.4537 O   0  0
   94.9248   -4.2699   13.2113 O   0  0
   93.2911   -3.4881   11.5639 O   0  0
   94.4447   -5.7893   11.1662 O   0  0
   88.0785   -7.2098    9.0215 O   0  0
   90.8753   -6.9061   18.9399 N   0  0
   91.8831   -6.6214   21.1725 N   0  0
   97.4224   -3.3362   25.7576 N   0  0
   97.3778   -3.6409   26.9916 N   0  0
   97.0292   -4.4035   29.6584 N   0  0
   91.3097   -5.8872   11.1130 N   0  0
   90.3168   -6.3065   10.4371 N   0  0
   97.8992   -2.3164   22.9532 S   0  0
  102.9341    0.4722   26.7708 S   0  0
   93.8236   -4.6966   12.2808 S   0  0
  1 57  1  0
  2  3  1  0
  4  5  1  0
  5  7  1  0
  6 39  1  0
  6  1  1  0
  8  9  1  0
  9 52  1  0
 10  4  1  0
 11 53  1  0
 13 14  1  0
 15 16  1  0
 15 18  1  0
 17 12  1  0
 18 47  1  0
 19 20  1  0
 19 54  1  0
 21 14  1  0
 22 55  1  0
 23 24  1  0
 23 56  1  0
 25 26  1  0
 27 28  1  0
 27 22  1  0
 29 30  1  0
 31 26  1  0
 32 58  1  0
 33 34  1  0
 33 51  1  0
 35 36  1  0
 37 32  1  0
 38 51  1  0
 52 11  1  0
 53 12  1  0
 59 20  1  0
 59 43  1  0
 60 30  1  0
 60 46  1  0
 61  2  1  0
 61 50  1  0
  1  2  2  0
  3  4  2  0
  5  6  2  0
  7  8  2  0
  9 10  2  0
 11 40  2  0
 12 13  2  0
 14 15  2  0
 16 17  2  0
 18 19  2  0
 20 21  2  0
 22 23  2  0
 24 25  2  0
 26 27  2  0
 28 29  2  0
 30 31  2  0
 32 33  2  0
 34 35  2  0
 36 37  2  0
 54 55  2  0
 57 58  2  0
 59 41  2  0
 59 42  2  0
 60 44  2  0
 60 45  2  0
 61 48  2  0
 61 49  2  0
M  END
> <Name>
CHEMBL1091751

> <rmsd>
0.648040056

$$$$
CHEMBL3628224 PubChem-122193264
  SciTegic06052412183D

116123  0  0  0  0            999 V2000
   89.2753   -6.0799    9.8053 C   0  0
   90.4345   -4.3427   10.2344 C   0  0
   88.5894   -4.9898    9.4037 C   0  0
   87.3470   -5.1355    8.8021 C   0  0
   87.5790   -7.4977    9.0591 C   0  0
   91.5114   -6.5205   10.8855 C   0  0
   92.0612   -7.4473    9.8455 C   0  0
   92.2519   -9.7274    8.8231 C   0  0
   91.0735  -10.4348    8.1552 C   0  0
   90.4306   -8.6477    6.4739 C   0  0
   89.3656   -7.7497    5.9294 C   0  0
   90.1865   -5.3995    6.1884 C   0  0
   89.2530   -4.2591    5.8251 C   0  0
   88.8113   -1.8908    6.5555 C   0  0
   89.1318   -0.7590    7.4619 C   0  0
   90.3506   -6.5430    3.9488 C   0  0
   90.1113   -7.7285    3.0668 C   0  0
   87.8142   -7.5985    2.1911 C   0  0
   87.3810   -6.7788    0.0102 C   0  0
   88.7508   -6.5714   -0.1895 C   0  0
   89.6276   -6.9005    0.8421 C   0  0
   89.2877   -6.0124   -1.4637 C   0  0
   91.0103   -9.4103   11.0078 C   0  0
   91.7445  -10.4993   11.7090 C   0  0
   93.5756  -11.1994   13.3037 C   0  0
   92.7236  -11.6569   14.4764 C   0  0
   91.4061   -9.8762   15.6450 C   0  0
   91.2918   -8.7735   16.6539 C   0  0
   91.2599   -6.6387   15.3259 C   0  0
   90.3156   -5.8000   14.8491 C   0  0
   89.3482   -7.3197   15.9766 C   0  0
   90.6818   -4.7294   14.0453 C   0  0
   92.9536   -5.4277   14.2749 C   0  0
   93.7128  -10.5176   16.4607 C   0  0
   94.5882   -9.3202   16.2395 C   0  0
   96.3694   -7.7782   17.1750 C   0  0
   95.5678   -6.5317   17.5251 C   0  0
   93.9757   -7.1859   19.3474 C   0  0
   94.2321   -8.3879   20.2042 C   0  0
   93.2597  -10.2530   21.6227 C   0  0
   93.5194   -9.8376   23.0618 C   0  0
   95.7926  -10.8777   23.3143 C   0  0
   95.9679  -11.4213   24.6981 C   0  0
   97.2774  -12.9424   26.2518 C   0  0
   96.2860  -14.0553   26.3884 C   0  0
   98.7059  -13.4737   26.3311 C   0  0
   99.1443  -13.7077   27.7762 C   0  0
   98.5814  -15.0045   28.3421 C   0  0
   99.2260  -16.2091   27.6752 C   0  0
   98.5040  -18.3304   27.0544 C   0  0
   99.6044  -18.0286   29.0823 C   0  0
   95.4908   -8.3799   23.5834 C   0  0
   96.9476   -8.2094   23.9183 C   0  0
   97.6580   -5.8569   24.0429 C   0  0
   97.5309   -4.6344   26.0693 C   0  0
   97.0465   -5.7695   26.7296 C   0  0
   96.8772   -6.9426   25.9948 C   0  0
   96.7081   -5.7497   28.1810 C   0  0
   95.9340   -5.6949   19.8727 C   0  0
   97.2042   -5.0145   19.4778 C   0  0
   96.8896   -2.5509   19.8509 C   0  0
   96.5672   -1.4811   19.0943 C   0  0
   96.6239   -3.1923   17.8370 C   0  0
   96.4537   -0.2294   19.6810 C   0  0
   97.0075   -1.2360   21.7736 C   0  0
   90.4494   -5.6973   10.3223 N   0  0
   89.2887   -3.8713    9.6651 N   0  0
   86.8616   -6.4040    8.6418 N   0  0
   88.8037   -7.3400    9.6477 N   0  0
   87.0505   -8.8056    8.8680 N   0  0
   91.8042   -8.8593    9.9094 N   0  0
   90.1325   -9.4725    7.5994 N   0  0
   89.9348   -6.5491    5.3265 N   0  0
   89.5475   -3.1105    6.6629 N   0  0
   89.1565   -7.4059    2.0133 N   0  0
   86.9465   -7.2864    1.1910 N   0  0
   92.8709  -10.1856   12.5320 N   0  0
   92.6354  -10.6023   15.4762 N   0  0
   90.6753   -7.6002   16.0473 N   0  0
   89.0915   -6.1997   15.2419 N   0  0
   92.0111   -4.5633   13.7742 N   0  0
   92.5781   -6.4843   15.0583 N   0  0
   94.3280   -5.2252   13.9713 N   0  0
   95.5276   -8.9632   17.2553 N   0  0
   95.2181   -6.5277   18.9427 N   0  0
   93.1181   -9.0774   20.7744 N   0  0
   94.9486   -9.6831   23.3106 N   0  0
   97.0916  -12.2572   24.9783 N   0  0
   95.3772  -14.0609   27.4835 N   0  0
   98.6320  -17.4303   28.1854 N   0  0
   97.1770   -6.9741   24.6664 N   0  0
   97.8275   -4.7050   24.7458 N   0  0
   96.9383   -3.6400   19.0791 N   0  0
   96.3872   -1.8470   17.8106 N   0  0
   96.6811   -0.1331   21.0257 N   0  0
   97.1136   -2.4674   21.1862 N   0  0
   97.2414   -1.0967   23.1693 N   0  0
   86.6805   -4.1408    8.4144 O   0  0
   92.7502   -6.9667    8.9045 O   0  0
   91.5514   -8.7348    5.9002 O   0  0
   87.8963   -1.7625    5.6988 O   0  0
   90.9382   -5.5341    3.4710 O   0  0
   87.3682   -8.0652    3.2745 O   0  0
   86.5486   -6.4976   -0.8928 O   0  0
   91.3705  -11.6973   11.5634 O   0  0
   90.3941  -10.1804   14.9553 O   0  0
   89.8260   -3.9377   13.5728 O   0  0
   94.5467   -8.6804   15.1525 O   0  0
   95.4078   -8.8117   20.3853 O   0  0
   95.0988  -11.2031   25.5843 O   0  0
   96.2540  -14.9894   25.5389 O   0  0
   94.7513   -7.3619   23.4872 O   0  0
   97.9550   -5.8809   22.8165 O   0  0
   97.6924   -3.5467   26.6865 O   0  0
   95.4850   -5.5116   21.0351 O   0  0
   96.1492    0.7888   19.0063 O   0  0
  1 66  1  0
  1 69  1  0
  3 67  1  0
  3  4  1  0
  4 68  1  0
  5 70  1  0
  6 66  1  0
  6  7  1  0
  7 71  1  0
  8 71  1  0
  8  9  1  0
  9 72  1  0
 11 10  1  0
 11 73  1  0
 12 73  1  0
 12 13  1  0
 13 74  1  0
 15 14  1  0
 17 16  1  0
 17 75  1  0
 18 76  1  0
 19 20  1  0
 21 75  1  0
 22 20  1  0
 23 71  1  0
 23 24  1  0
 24 77  1  0
 25 77  1  0
 25 26  1  0
 26 78  1  0
 28 27  1  0
 28 79  1  0
 29 82  1  0
 30 80  1  0
 30 32  1  0
 31 79  1  0
 32 81  1  0
 33 83  1  0
 34 78  1  0
 34 35  1  0
 35 84  1  0
 36 84  1  0
 36 37  1  0
 37 85  1  0
 38 85  1  0
 38 39  1  0
 39 86  1  0
 40 86  1  0
 40 41  1  0
 41 87  1  0
 42 87  1  0
 42 43  1  0
 43 88  1  0
 44 88  1  0
 44 45  1  0
 44 46  1  0
 45 89  1  0
 46 47  1  0
 47 48  1  0
 48 49  1  0
 49 90  1  0
 50 90  1  0
 51 90  1  0
 53 52  1  0
 53 91  1  0
 54 92  1  0
 55 56  1  0
 57 91  1  0
 58 56  1  0
 60 59  1  0
 60 93  1  0
 61 96  1  0
 62 94  1  0
 62 64  1  0
 63 93  1  0
 64 95  1  0
 65 97  1  0
 66  2  1  0
 68  5  1  0
 72 10  1  0
 73 16  1  0
 74 14  1  0
 75 18  1  0
 76 19  1  0
 78 27  1  0
 79 29  1  0
 81 33  1  0
 85 59  1  0
 87 52  1  0
 91 54  1  0
 92 55  1  0
 93 61  1  0
 95 65  1  0
  2 67  2  0
  3  1  2  0
  4 98  2  0
  5 69  2  0
  7 99  2  0
 10100  2  0
 14101  2  0
 16102  2  0
 18103  2  0
 19104  2  0
 20 21  2  0
 24105  2  0
 27106  2  0
 29 30  2  0
 31 80  2  0
 32107  2  0
 33 82  2  0
 35108  2  0
 39109  2  0
 43110  2  0
 45111  2  0
 52112  2  0
 54113  2  0
 55114  2  0
 56 57  2  0
 59115  2  0
 61 62  2  0
 63 94  2  0
 64116  2  0
 65 96  2  0
M  END
> <Name>
CHEMBL3628224 PubChem-122193264

> <rmsd>
0.646203578

$$$$
CHEMBL2059660 PubChem-70690599
  SciTegic06052412183D

 91102  0  0  0  0            999 V2000
  101.6650   -3.6796   26.2665 P   0  0
  100.4938    0.4089   33.6424 P   0  0
   96.0112   -2.3306   19.8954 P   0  0
   94.4974   -9.4311   15.2721 P   0  0
  100.3885   -4.3801   25.8653 O   0  0
  102.9755   -4.4713   25.5508 O   0  0
  101.8357   -3.7581   27.9574 O   0  0
  100.0482   -0.9049   32.6678 O   0  0
  101.9509    0.2875   34.0324 O   0  0
  100.2509    1.8593   32.8016 O   0  0
   99.5405    0.4086   35.0392 O   0  0
   99.6065   -2.4853   30.3222 O   0  0
  103.0382   -2.5506   29.8861 O   0  0
  101.4941   -1.9611   24.2630 O   0  0
   97.6581   -0.6176   23.3991 O   0  0
   97.5628   -2.5813   20.5420 O   0  0
   95.3695   -1.1020   20.5089 O   0  0
   96.1489   -2.0979   18.2268 O   0  0
   95.4915   -4.8988   19.5557 O   0  0
   95.8105   -7.5599   18.0302 O   0  0
   94.1902   -7.9381   16.0222 O   0  0
   95.8211   -9.9647   15.7660 O   0  0
   94.5875   -9.2062   13.5947 O   0  0
   94.8770   -6.7203   11.5689 O   0  0
   93.3908   -5.9280    9.6259 O   0  0
   91.9918   -8.6603   11.1924 O   0  0
   93.2822  -10.5558   15.6341 O   0  0
   92.5269   -6.3302   18.2256 O   0  0
   99.0403   -3.2963   23.4678 O   0  0
  101.0817   -2.7000   28.4791 C   0  0
  101.8051   -1.9681   29.5837 C   0  0
  100.8805   -2.0999   30.7725 C   0  0
  100.7944   -0.7702   31.4941 C   0  0
   99.8233   -3.2184   29.1448 C   0  0
   97.8390   -4.0568   27.8442 C   0  0
   97.0958   -2.2709   26.9656 C   0  0
   96.4013   -1.2703   26.3014 C   0  0
   97.9896    0.2969   27.1435 C   0  0
   98.1904   -1.9612   27.6909 C   0  0
  101.6171   -1.9648   25.6535 C   0  0
  100.2879   -1.3051   24.0066 C   0  0
   99.5069   -2.0810   22.9533 C   0  0
   98.3208   -1.3244   22.3959 C   0  0
   97.4312   -2.4345   21.9255 C   0  0
   94.9627   -3.7824   20.2009 C   0  0
   94.5966   -5.1730   18.5198 C   0  0
   93.7923   -6.4320   18.8307 C   0  0
   94.4707   -7.7317   18.3989 C   0  0
   93.6241   -8.2480   17.2673 C   0  0
   93.2690   -9.0149   13.1773 C   0  0
   93.2520   -8.4538   11.7707 C   0  0
   93.5213   -6.9684   11.7970 C   0  0
   92.6424   -6.4298   10.6947 C   0  0
   91.8509   -7.6392   10.2352 C   0  0
   89.3653   -7.8160   10.7009 C   0  0
   88.5745   -6.4033    9.3326 C   0  0
   87.8085   -5.5533    8.5525 C   0  0
   89.8220   -4.7780    7.5393 C   0  0
   89.9173   -6.4159    9.1954 C   0  0
   92.3121   -7.5082   17.4846 C   0  0
   90.4361   -7.7700   15.8279 C   0  0
   90.8520   -6.2207   14.4329 C   0  0
   90.8489   -5.2539   13.4369 C   0  0
   92.8717   -4.3907   14.3701 C   0  0
   91.8388   -6.2375   15.3534 C   0  0
   97.9770   -3.6736   22.6264 C   0  0
   95.6253   -4.0551   23.5302 C   0  0
   95.9251   -5.7589   24.7537 C   0  0
   95.8527   -6.8194   25.6432 C   0  0
   98.1873   -7.1656   25.3106 C   0  0
   97.1061   -5.4364   24.1842 C   0  0
   98.6788   -3.0727   28.2540 N   0  0
   96.8408   -3.5899   27.0409 N   0  0
   95.2338   -1.5532   25.5387 N   0  0
   96.8707    0.0076   26.4035 N   0  0
   98.6607   -0.6950   27.8035 N   0  0
   90.4425   -7.2942   10.0556 N   0  0
   88.1863   -7.2808   10.2741 N   0  0
   86.3917   -5.5086    8.6702 N   0  0
   88.4564   -4.7500    7.6605 N   0  0
   90.5710   -5.6208    8.3140 N   0  0
   91.5999   -7.2077   16.2448 N   0  0
   89.9470   -7.1828   14.6990 N   0  0
   89.7925   -5.1715   12.4854 N   0  0
   91.8761   -4.3514   13.4229 N   0  0
   92.8533   -5.3377   15.3563 N   0  0
   96.9471   -4.3588   23.4098 N   0  0
   94.9615   -4.9089   24.3591 N   0  0
   94.6320   -7.1761   26.2824 N   0  0
   96.9999   -7.5070   25.9079 N   0  0
   98.2503   -6.1168   24.4370 N   0  0
  1  6  1  0
  1  7  1  0
  1 40  1  0
  2  8  1  0
  2 10  1  0
  2 11  1  0
  3 16  1  0
  3 18  1  0
  3 45  1  0
  4 21  1  0
  4 23  1  0
  4 27  1  0
 30  7  1  0
 30 31  1  0
 31 32  1  0
 31 13  1  0
 32 33  1  0
 32 12  1  0
 33  8  1  0
 34 12  1  0
 34 72  1  0
 34 30  1  0
 36 73  1  0
 37 74  1  0
 37 75  1  0
 38 76  1  0
 39 72  1  0
 39 36  1  0
 40 14  1  0
 41 14  1  0
 42 41  1  0
 42 43  1  0
 42 29  1  0
 43 15  1  0
 43 44  1  0
 44 16  1  0
 44 66  1  0
 45 19  1  0
 46 19  1  0
 47 46  1  0
 47 48  1  0
 47 28  1  0
 48 20  1  0
 48 49  1  0
 49 21  1  0
 49 60  1  0
 50 23  1  0
 51 50  1  0
 51 52  1  0
 51 26  1  0
 52 24  1  0
 52 53  1  0
 53 25  1  0
 53 54  1  0
 54 26  1  0
 54 77  1  0
 56 78  1  0
 57 79  1  0
 57 80  1  0
 58 81  1  0
 59 77  1  0
 59 56  1  0
 60 28  1  0
 60 82  1  0
 62 83  1  0
 63 84  1  0
 63 85  1  0
 64 86  1  0
 65 82  1  0
 65 62  1  0
 66 29  1  0
 66 87  1  0
 68 88  1  0
 69 89  1  0
 69 90  1  0
 70 91  1  0
 71 87  1  0
 71 68  1  0
 72 35  1  0
 77 55  1  0
 82 61  1  0
 87 67  1  0
  1  5  2  0
  2  9  2  0
  3 17  2  0
  4 22  2  0
 35 73  2  0
 36 37  2  0
 38 75  2  0
 39 76  2  0
 55 78  2  0
 56 57  2  0
 58 80  2  0
 59 81  2  0
 61 83  2  0
 62 63  2  0
 64 85  2  0
 65 86  2  0
 67 88  2  0
 68 69  2  0
 70 90  2  0
 71 91  2  0
M  END
> <Name>
CHEMBL2059660 PubChem-70690599

> <rmsd>
0.612307489

$$$$
CHEMBL4082979
  SciTegic06052412183D

 82 89  0  0  0  0            999 V2000
   96.6988   -4.1221   31.2127 O   0  0
   96.9192   -5.5530   29.2377 O   0  0
   99.1759   -3.0630   22.9900 O   0  0
   97.6858   -2.3923   21.1656 O   0  0
   97.4752   -1.1330   23.4205 O   0  0
   93.3446   -6.8040   19.0342 O   0  0
   89.1265   -6.5106   12.7266 O   0  0
   94.2505   -2.8703   13.8718 O   0  0
   92.3542   -1.9649   12.6175 O   0  0
   93.8323   -3.7785   11.4777 O   0  0
   89.3004   -9.8587    4.1050 O   0  0
   87.5862   -9.4494    2.4081 O   0  0
   86.8310   -9.6869    4.8894 O   0  0
   86.8386   -5.8125   10.3287 O   0  0
   88.4911   -7.3906    9.4188 O   0  0
   86.5792   -6.5875    7.8666 O   0  0
   95.3665   -5.4909   26.2479 O   0  0
   93.6504    1.0373   32.4158 O   0  0
   94.1170   -0.5445   34.2276 O   0  0
   94.6071    1.9837   34.6287 O   0  0
   95.1284   -3.6586   29.2039 O   0  0
   96.6522   -4.1514   29.7116 S   0  0
   97.7881   -2.5947   22.6516 S   0  0
   93.1517   -3.2049   12.9034 S   0  0
   88.0076   -9.1489    3.8185 S   0  0
   87.6346   -6.1948    9.1124 S   0  0
   94.5915    0.7056   33.5397 S   0  0
   97.8711   -3.0634   29.0576 C   0  0
   98.0377   -2.9087   27.6691 C   0  0
   96.4742   -4.1402   24.5380 C   0  0
   96.6168   -3.8026   23.1765 C   0  0
   95.8158   -4.4168   22.2127 C   0  0
   94.8694   -5.3683   22.5805 C   0  0
   94.0626   -5.9532   21.6034 C   0  0
   93.1010   -6.9130   21.9517 C   0  0
   92.3016   -7.2863   19.5542 C   0  0
   90.9771   -7.2568   17.3760 C   0  0
   89.9087   -7.8024   16.6581 C   0  0
   89.6472   -7.3823   15.3498 C   0  0
   90.4550   -6.4090   14.7422 C   0  0
   90.1994   -5.9682   13.4322 C   0  0
   91.0239   -4.9739   12.8481 C   0  0
   92.0964   -4.4399   13.5896 C   0  0
   92.3437   -4.8864   14.8886 C   0  0
   91.5379   -5.8627   15.4654 C   0  0
   91.7884   -6.2844   16.7709 C   0  0
   89.6600   -4.3356    9.4561 C   0  0
   90.4520   -3.2641    9.0058 C   0  0
   90.2623   -2.7259    7.7306 C   0  0
   89.2837   -3.2528    6.8831 C   0  0
   88.5328   -4.6612    4.3833 C   0  0
   89.5261   -5.5476    4.8262 C   0  0
   89.3699   -6.9238    4.6477 C   0  0
   88.2284   -7.4218    4.0125 C   0  0
   87.2558   -6.5379    3.5374 C   0  0
   87.4128   -5.1610    3.7142 C   0  0
   88.4638   -4.2936    7.3465 C   0  0
   88.6530   -4.8486    8.6160 C   0  0
   92.9538   -7.2769   23.2955 C   0  0
   93.7574   -6.6929   24.2822 C   0  0
   94.7183   -5.7310   23.9355 C   0  0
   95.5205   -5.1205   24.9152 C   0  0
   99.0272   -2.0357   27.1887 C   0  0
   99.8274   -1.3117   28.0750 C   0  0
   99.6366   -1.4328   29.4538 C   0  0
   98.7970    0.0067   31.9181 C   0  0
   97.7420    0.3069   31.0416 C   0  0
   96.4498    0.5142   31.5319 C   0  0
   96.2081    0.4517   32.9079 C   0  0
   97.2646    0.1948   33.7881 C   0  0
   98.5546   -0.0217   33.2941 C   0  0
   98.6775   -2.3336   29.9391 C   0  0
   97.2059   -3.6337   26.7554 N   0  0
   97.2988   -3.4614   25.4994 N   0  0
   92.2229   -7.4881   20.9726 N   0  0
   91.1901   -7.6679   18.7335 N   0  0
   90.7857   -4.4615   11.5272 N   0  0
   89.8639   -4.8901   10.7616 N   0  0
   89.0743   -2.6453    5.5972 N   0  0
   88.6823   -3.2437    4.5361 N   0  0
  100.4969   -0.7109   30.3482 N   0  0
  100.1439   -0.1561   31.4459 N   0  0
 22 28  1  0
 22 21  1  0
 23 31  1  0
 23  5  1  0
 24 43  1  0
 24 10  1  0
 25 54  1  0
 25 13  1  0
 26 58  1  0
 26 16  1  0
 27 69  1  0
 27 20  1  0
 29 73  1  0
 29 63  1  0
 30 74  1  0
 31 32  1  0
 33 34  1  0
 35 75  1  0
 35 59  1  0
 36 76  1  0
 38 39  1  0
 40 41  1  0
 41  7  1  0
 42 43  1  0
 42 77  1  0
 44 45  1  0
 45 40  1  0
 46 37  1  0
 47 78  1  0
 48 49  1  0
 50 79  1  0
 50 57  1  0
 51 80  1  0
 52 53  1  0
 54 55  1  0
 56 51  1  0
 58 47  1  0
 60 61  1  0
 61 33  1  0
 62 17  1  0
 62 30  1  0
 64 65  1  0
 65 81  1  0
 66 82  1  0
 67 68  1  0
 69 70  1  0
 71 66  1  0
 72 28  1  0
 75 36  1  0
 76 37  1  0
 22  1  2  0
 22  2  2  0
 23  3  2  0
 23  4  2  0
 24  8  2  0
 24  9  2  0
 25 11  2  0
 25 12  2  0
 26 14  2  0
 26 15  2  0
 27 18  2  0
 27 19  2  0
 28 29  2  0
 30 31  2  0
 32 33  2  0
 34 35  2  0
 36  6  2  0
 37 38  2  0
 39 40  2  0
 41 42  2  0
 43 44  2  0
 45 46  2  0
 47 48  2  0
 49 50  2  0
 51 52  2  0
 53 54  2  0
 55 56  2  0
 57 58  2  0
 59 60  2  0
 61 62  2  0
 63 64  2  0
 65 72  2  0
 66 67  2  0
 68 69  2  0
 70 71  2  0
 73 74  2  0
 77 78  2  0
 79 80  2  0
 81 82  2  0
M  END
> <Name>
CHEMBL4082979

> <rmsd>
0.513398409

$$$$
CHEMBL4794405 PubChem-162674066
  SciTegic06052412183D

 42 45  0  0  0  0            999 V2000
   94.7593   -3.1332   27.0165 O   0  0
   97.0062   -3.7010   27.8245 O   0  0
   97.9905   -2.0752   20.4811 O   0  0
   88.5318   -5.2966   12.5416 O   0  0
   90.5356   -6.8139   10.1601 O   0  0
   88.0413   -7.2294    9.6933 O   0  0
   85.6788   -5.1408   12.7295 O   0  0
   96.2127   -2.7596   26.9620 S   0  0
   96.7814   -2.8473   25.3063 C   0  0
   97.3923   -4.0127   24.8318 C   0  0
   97.8387   -4.0809   23.5090 C   0  0
   97.6763   -2.9856   22.6482 C   0  0
   98.1486   -3.0592   21.2544 C   0  0
   99.2611   -4.3706   19.4104 C   0  0
   99.9253   -5.7218   19.2287 C   0  0
  100.3500   -5.9156   17.7807 C   0  0
   99.1472   -6.1666   16.8838 C   0  0
   98.5910   -7.5608   17.1218 C   0  0
   97.2851   -7.7485   16.3653 C   0  0
   96.1524   -6.9688   17.0169 C   0  0
   95.7377   -7.6237   18.3247 C   0  0
   94.6077   -6.8452   18.9795 C   0  0
   93.2620   -7.2224   18.3809 C   0  0
   91.9180   -6.7706   16.2960 C   0  0
   89.7791   -7.7747   15.9442 C   0  0
   90.6682   -6.3515   14.3256 C   0  0
   91.7797   -6.1475   15.0640 C   0  0
   91.9659   -5.0374   13.2623 C   0  0
   89.8223   -5.5938   12.0731 C   0  0
   87.6525   -5.8977   11.6267 C   0  0
   88.3159   -7.1311   11.0599 C   0  0
   89.7856   -6.9144   11.3350 C   0  0
   86.3624   -6.2869   12.3244 C   0  0
   97.0599   -1.8210   23.1296 C   0  0
   96.6137   -1.7525   24.4527 C   0  0
   98.7892   -4.2448   20.7781 N   0  0
   93.0863   -6.5729   17.0923 N   0  0
   90.8987   -7.5819   16.7142 N   0  0
   89.6550   -7.1551   14.7313 N   0  0
   92.6253   -5.3194   14.4221 N   0  0
   90.7616   -5.6574   13.1854 N   0  0
   96.4164   -1.2014   27.5402 F   0  0
  8  9  1  0
  8 42  1  0
 10 11  1  0
 12 13  1  0
 12 34  1  0
 13 36  1  0
 14 36  1  0
 14 15  1  0
 15 16  1  0
 16 17  1  0
 17 18  1  0
 18 19  1  0
 19 20  1  0
 20 21  1  0
 21 22  1  0
 22 23  1  0
 23 37  1  0
 25 38  1  0
 26 39  1  0
 27 40  1  0
 27 24  1  0
 28 41  1  0
 29 41  1  0
 29  4  1  0
 30  4  1  0
 30 31  1  0
 30 33  1  0
 31 32  1  0
 31  6  1  0
 32  5  1  0
 32 29  1  0
 33  7  1  0
 35  9  1  0
 37 24  1  0
 41 26  1  0
  8  1  2  0
  8  2  2  0
  9 10  2  0
 11 12  2  0
 13  3  2  0
 24 38  2  0
 25 39  2  0
 26 27  2  0
 28 40  2  0
 34 35  2  0
M  END
> <Name>
CHEMBL4794405 PubChem-162674066

> <rmsd>
0.656680703

$$$$
CHEMBL3102961 PubChem-72793310
  SciTegic06052412183D

 79 86  0  0  0  0            999 V2000
   88.6525   -9.6195   18.1497 C   0  0
   89.4297   -8.8817   19.0476 C   0  0
   90.2863   -7.8816   18.5786 C   0  0
   90.3735   -7.6143   17.2054 C   0  0
   89.5870   -8.3508   16.2932 C   0  0
   88.7315   -9.3530   16.7813 C   0  0
   89.6845   -8.0858   14.9144 C   0  0
   90.5509   -7.0500   14.4748 C   0  0
   91.3370   -6.3462   15.4309 C   0  0
   92.2152   -5.3165   15.0081 C   0  0
   92.2585   -4.9782   13.6503 C   0  0
   91.4675   -5.6455   12.7180 C   0  0
   90.6231   -6.6734   13.1270 C   0  0
   93.0840   -4.5628   15.9457 C   0  0
   94.1297   -4.3201   18.2493 C   0  0
   95.6023   -4.4073   17.8723 C   0  0
   96.7923   -2.6984   18.6256 C   0  0
   96.6898   -1.8133   19.8578 C   0  0
   97.9157   -1.1652   21.5864 C   0  0
   99.4254   -1.0113   21.5197 C   0  0
  100.8218   -2.6877   21.1755 C   0  0
  101.5390   -3.8962   21.7464 C   0  0
  101.0043   -5.2294   23.4127 C   0  0
   99.8220   -5.8251   24.1682 C   0  0
   97.9909   -5.3170   25.2968 C   0  0
   96.6515   -4.5950   25.2644 C   0  0
   97.3338   -2.5575   26.6239 C   0  0
   97.4992   -1.0843   26.6908 C   0  0
   98.1624   -0.4297   27.7570 C   0  0
   99.3648   -0.5570   29.8050 C   0  0
   99.9211   -1.3562   30.8088 C   0  0
  100.6352   -0.7684   31.8567 C   0  0
  100.7989    0.6178   31.9012 C   0  0
  100.2434    1.4195   30.9030 C   0  0
   99.5108    0.8514   29.8495 C   0  0
   98.9347    1.6364   28.8213 C   0  0
   98.2805    0.9843   27.7575 C   0  0
   97.7383    1.7221   26.6973 C   0  0
   97.0958    1.0769   25.6444 C   0  0
   96.9792   -0.3128   25.6440 C   0  0
   99.2595    3.9578   29.9365 C   0  0
   98.0661    3.9800   30.8779 C   0  0
   98.3348    4.8779   32.0797 C   0  0
   99.2333    4.1925   33.0971 C   0  0
  101.6698    3.5950   33.3429 C   0  0
  103.9345    2.9653   33.4654 C   0  0
  102.4277    2.2556   35.1282 C   0  0
   89.0998   -9.0647   12.5833 C   0  0
   90.3540   -9.8972   12.3429 C   0  0
   90.5914  -10.1093   10.8526 C   0  0
   91.2743   -8.9049   10.2093 C   0  0
   89.2242   -7.8002    9.1914 C   0  0
   87.3165   -6.7301    8.3186 C   0  0
   87.9357   -8.8566    7.5285 C   0  0
   91.2164   -6.6525   16.7545 N   0  0
   93.3135   -5.0330   17.2757 N   0  0
   96.8363   -3.1573   25.4238 N   0  0
   98.7022   -1.1445   28.7780 N   0  0
   98.9951    3.0776   28.8055 N   0  0
  100.6156    4.2585   32.6524 N   0  0
  102.9279    3.6157   32.8288 N   0  0
  103.6864    2.2857   34.6152 N   0  0
  101.4228    2.9105   34.4926 N   0  0
  102.1641    1.5375   36.3305 N   0  0
  105.2520    2.9890   32.9238 N   0  0
   88.8893   -8.8817   14.0125 N   0  0
   90.3494   -7.7881   10.0762 N   0  0
   88.3805   -6.7368    9.1614 N   0  0
   87.0991   -7.7883    7.4962 N   0  0
   88.9995   -8.8611    8.3740 N   0  0
   87.7073   -9.9624    6.6658 N   0  0
   86.4417   -5.6088    8.2877 N   0  0
   93.6449   -3.5039   15.5577 O   0  0
   96.3916   -3.9968   18.9475 O   0  0
   97.5237   -2.2973   20.8691 O   0  0
  100.0434   -2.0820   22.1649 O   0  0
  100.6172   -4.8673   22.1212 O   0  0
   98.7793   -4.8984   24.2257 O   0  0
   97.6107   -3.2870   27.6173 O   0  0
  2  3  1  0
  4  5  1  0
  4 55  1  0
  5  7  1  0
  6  1  1  0
  7 66  1  0
  8  9  1  0
  9 10  1  0
 10 14  1  0
 11 12  1  0
 13  8  1  0
 14 56  1  0
 15 56  1  0
 15 16  1  0
 16 74  1  0
 17 74  1  0
 17 18  1  0
 18 75  1  0
 19 75  1  0
 19 20  1  0
 20 76  1  0
 21 76  1  0
 21 22  1  0
 22 77  1  0
 23 77  1  0
 23 24  1  0
 24 78  1  0
 25 78  1  0
 25 26  1  0
 26 57  1  0
 27 28  1  0
 28 29  1  0
 30 58  1  0
 31 32  1  0
 33 34  1  0
 35 36  1  0
 35 30  1  0
 36 59  1  0
 37 38  1  0
 37 29  1  0
 39 40  1  0
 41 59  1  0
 41 42  1  0
 42 43  1  0
 43 44  1  0
 44 60  1  0
 45 63  1  0
 46 61  1  0
 46 65  1  0
 47 62  1  0
 47 64  1  0
 48 66  1  0
 48 49  1  0
 49 50  1  0
 50 51  1  0
 51 67  1  0
 52 70  1  0
 53 68  1  0
 53 72  1  0
 54 69  1  0
 54 71  1  0
 57 27  1  0
 60 45  1  0
 67 52  1  0
  1  2  2  0
  3  4  2  0
  5  6  2  0
  7  8  2  0
  9 55  2  0
 10 11  2  0
 12 13  2  0
 14 73  2  0
 27 79  2  0
 29 58  2  0
 30 31  2  0
 32 33  2  0
 34 35  2  0
 36 37  2  0
 38 39  2  0
 40 28  2  0
 45 61  2  0
 46 62  2  0
 47 63  2  0
 52 68  2  0
 53 69  2  0
 54 70  2  0
M  END
> <Name>
CHEMBL3102961 PubChem-72793310

> <rmsd>
0.614886463

$$$$
CHEMBL2058190 PubChem-70692681
  SciTegic06052412183D

 90101  0  0  0  0            999 V2000
   90.2577   -5.7041    3.4091 C   0  0
   90.0600   -4.8680    2.1443 C   0  0
   89.6155   -3.4653    2.4864 C   0  0
   88.1335   -3.5261    2.2451 C   0  0
   87.9707   -4.6595    1.2550 C   0  0
   85.4898   -4.9554    1.5737 C   0  0
   85.3269   -6.9982    2.1188 C   0  0
   84.9383   -8.2813    2.4758 C   0  0
   87.2306   -8.9337    2.3603 C   0  0
   86.6301   -6.7206    1.9023 C   0  0
   90.4356   -5.7087    7.6706 C   0  0
   91.1661   -4.4442    8.0476 C   0  0
   91.9155   -4.8253    9.3126 C   0  0
   91.5657   -3.8819   10.4504 C   0  0
   91.0544   -3.0340   14.0221 C   0  0
   91.1514   -2.1264   15.2123 C   0  0
   92.5191   -2.4589   15.7953 C   0  0
   92.5696   -2.3240   17.3201 C   0  0
   93.5950   -3.8666   18.5125 C   0  0
   96.3131   -4.0514   21.5018 C   0  0
   97.1056   -2.9120   22.0846 C   0  0
   98.2866   -3.5880   22.7511 C   0  0
   98.1527   -3.5656   24.2657 C   0  0
   97.2561   -5.2319   21.5443 C   0  0
   96.3986   -7.5979   21.4562 C   0  0
   95.4985   -7.8251   23.3694 C   0  0
   94.8429   -8.2299   24.5241 C   0  0
   95.2452   -6.0597   25.4307 C   0  0
   96.0040   -6.5748   23.2842 C   0  0
   92.2693   -3.9362   14.1336 C   0  0
   92.1990   -6.1447   12.9319 C   0  0
   91.0075   -7.3272   14.2363 C   0  0
   90.2903   -8.3059   14.9101 C   0  0
   89.8960   -6.7210   16.6499 C   0  0
   91.1352   -6.0947   14.7757 C   0  0
   91.1109   -6.7655    8.5067 C   0  0
   90.2757   -9.1332    8.5419 C   0  0
   88.4800   -8.9599    9.6648 C   0  0
   87.2846   -9.1251   10.3498 C   0  0
   87.2943   -6.7781   10.7853 C   0  0
   89.0397   -7.7354    9.5729 C   0  0
   90.2303   -2.5792    1.5968 O   0  0
   87.6429   -2.3330    1.7100 O   0  0
   89.1198   -5.4782    1.2871 O   0  0
   89.0239   -6.0315    3.9838 O   0  0
   87.9184   -6.0812    6.3429 O   0  0
   89.0148   -3.8137    5.6274 O   0  0
   90.5505   -6.0188    6.3096 O   0  0
   90.2922   -4.1689   10.9506 O   0  0
   89.4310   -1.6970   10.9167 O   0  0
   88.4941   -3.2292   12.8138 O   0  0
   91.1226   -2.2791   12.8445 O   0  0
   93.8224   -2.6809   17.8155 O   0  0
   93.7867   -2.4140   20.8226 O   0  0
   93.5838   -5.0088   21.1196 O   0  0
   95.9141   -3.8075   20.1787 O   0  0
   97.9794   -2.2565   24.7319 O   0  0
   99.7328   -2.6515   26.6534 O   0  0
   97.9169   -0.8244   27.0891 O   0  0
   97.2986   -3.5093   27.1164 O   0  0
   98.3935   -4.9233   22.3183 O   0  0
   97.5795   -2.0457   21.0876 O   0  0
   92.8623   -3.7593   15.3962 O   0  0
   90.1210   -2.4495   16.1054 O   0  0
   91.6202   -6.1588    9.6667 O   0  0
   92.0860   -4.0712    7.0644 O   0  0
   86.7631   -5.4303    1.5621 N   0  0
   84.5719   -5.9039    1.9167 N   0  0
   83.5701   -8.6033    2.7049 N   0  0
   85.9100   -9.2362    2.5861 N   0  0
   87.6009   -7.6629    2.0127 N   0  0
   96.5779   -6.4081   22.0858 N   0  0
   95.7293   -8.5020   22.2303 N   0  0
   94.2906   -9.5369   24.6489 N   0  0
   94.7296   -7.3279   25.5427 N   0  0
   95.8911   -5.6709   24.2877 N   0  0
   91.8755   -5.3298   13.9643 N   0  0
   91.6712   -7.3979   13.0676 N   0  0
   90.1425   -9.6198   14.3796 N   0  0
   89.7484   -7.9798   16.1194 N   0  0
   90.6005   -5.7607   15.9756 N   0  0
   90.1692   -7.8202    8.8616 N   0  0
   89.2386   -9.8720    9.0247 N   0  0
   86.6523  -10.3976   10.4540 N   0  0
   86.7099   -8.0150   10.8974 N   0  0
   88.4786   -6.6274   10.1181 N   0  0
   89.0979   -5.5045    5.5924 P   0  0
   89.8340   -2.8143   11.8603 P   0  0
   94.2207   -3.7270   20.2116 P   0  0
   98.2767   -2.3280   26.4018 P   0  0
  1 45  1  0
  2  1  1  0
  2  3  1  0
  2 44  1  0
  3 42  1  0
  3  4  1  0
  4 43  1  0
  4  5  1  0
  5 44  1  0
  5 67  1  0
  7 68  1  0
  8 69  1  0
  8 70  1  0
  9 71  1  0
 10 67  1  0
 10  7  1  0
 11 48  1  0
 11 12  1  0
 12 13  1  0
 12 66  1  0
 13 14  1  0
 13 65  1  0
 14 49  1  0
 15 52  1  0
 15 16  1  0
 16 17  1  0
 16 64  1  0
 17 18  1  0
 17 63  1  0
 18 53  1  0
 19 53  1  0
 19 89  1  0
 20 56  1  0
 20 21  1  0
 21 22  1  0
 21 62  1  0
 22 23  1  0
 22 61  1  0
 23 57  1  0
 24 61  1  0
 24 72  1  0
 24 20  1  0
 26 73  1  0
 27 74  1  0
 27 75  1  0
 28 76  1  0
 29 72  1  0
 29 26  1  0
 30 63  1  0
 30 77  1  0
 30 15  1  0
 32 78  1  0
 33 79  1  0
 33 80  1  0
 34 81  1  0
 35 77  1  0
 35 32  1  0
 36 65  1  0
 36 82  1  0
 36 11  1  0
 38 83  1  0
 39 84  1  0
 39 85  1  0
 40 86  1  0
 41 82  1  0
 41 38  1  0
 67  6  1  0
 72 25  1  0
 77 31  1  0
 82 37  1  0
 87 45  1  0
 87 47  1  0
 87 48  1  0
 88 49  1  0
 88 51  1  0
 88 52  1  0
 89 55  1  0
 89 56  1  0
 90 57  1  0
 90 59  1  0
 90 60  1  0
  6 68  2  0
  7  8  2  0
  9 70  2  0
 10 71  2  0
 25 73  2  0
 26 27  2  0
 28 75  2  0
 29 76  2  0
 31 78  2  0
 32 33  2  0
 34 80  2  0
 35 81  2  0
 37 83  2  0
 38 39  2  0
 40 85  2  0
 41 86  2  0
 87 46  2  0
 88 50  2  0
 89 54  2  0
 90 58  2  0
M  END
> <Name>
CHEMBL2058190 PubChem-70692681

> <rmsd>
0.540970385

$$$$
CHEMBL2059854 PubChem-70688554
  SciTegic06052412183D

 91102  0  0  0  0            999 V2000
   89.0255   -4.0744   18.4640 P   0  0
   87.3432   -6.9693   11.4169 P   0  0
   85.2330  -10.9742    7.3794 P   0  0
   96.4467   -1.4247   21.5490 P   0  0
   88.6325   -3.0776   19.5331 O   0  0
   87.7868   -4.1421   17.2949 O   0  0
   87.3027   -5.5231   12.3128 O   0  0
   85.9308   -7.4361   11.1014 O   0  0
   88.1252   -8.1635   12.3245 O   0  0
   88.2429   -6.6922    9.9962 O   0  0
   85.7779   -9.3762    7.2210 O   0  0
   86.1461  -11.7367    8.3140 O   0  0
   83.6699  -10.9598    8.0193 O   0  0
   85.2021  -11.7425    5.8724 O   0  0
   87.2249   -7.0653    6.6175 O   0  0
   89.7192   -8.1015    8.3301 O   0  0
   87.6127   -6.5890   14.9986 O   0  0
   86.5747   -3.2172   15.2105 O   0  0
   90.7323   -2.1831   17.7594 O   0  0
   93.5700    0.3554   19.9228 O   0  0
   95.1903   -2.3916   20.9336 O   0  0
   97.7709   -2.0977   21.2655 O   0  0
   96.8209   -2.2832   24.0347 O   0  0
   93.8258   -2.1201   26.9768 O   0  0
   96.9349   -0.7254   27.4344 O   0  0
   96.8527   -3.6085   26.4586 O   0  0
   96.4304    0.0934   20.7991 O   0  0
   91.9921   -2.6902   20.3399 O   0  0
   89.1940   -5.5990   19.1782 O   0  0
   88.3626   -4.5794   16.0902 C   0  0
   87.4769   -4.2418   14.9142 C   0  0
   86.7478   -5.5370   14.6674 C   0  0
   86.2550   -5.6638   13.2294 C   0  0
   87.5514   -7.3141    8.9475 C   0  0
   88.3531   -8.3909    8.2781 C   0  0
   87.8875   -8.2952    6.8360 C   0  0
   86.9663   -9.4562    6.4858 C   0  0
   87.2916   -6.3443    7.8237 C   0  0
   84.7908   -6.1150    8.1486 C   0  0
   84.6074   -4.0240    8.4742 C   0  0
   84.2114   -2.7134    8.7032 C   0  0
   86.4958   -2.0554    8.4708 C   0  0
   85.9098   -4.3044    8.2626 C   0  0
   88.4055   -6.1056   16.0573 C   0  0
   90.4816   -7.3003   16.8109 C   0  0
   91.8052   -6.9777   15.1833 C   0  0
   92.8536   -6.9132   14.2780 C   0  0
   91.4330   -5.6524   12.8326 C   0  0
   90.6283   -6.3839   14.8944 C   0  0
   90.6293   -3.5773   17.7578 C   0  0
   92.0699   -1.9226   18.0722 C   0  0
   92.2092   -1.5533   19.5435 C   0  0
   93.6055   -1.0332   19.8002 C   0  0
   94.0120   -1.6535   21.1086 C   0  0
   96.2639   -1.2038   23.3466 C   0  0
   95.7366   -3.0962   24.3817 C   0  0
   95.6202   -3.2455   25.8936 C   0  0
   95.1415   -1.9560   26.5366 C   0  0
   96.0547   -1.7732   27.7138 C   0  0
   96.7921   -3.1022   27.7652 C   0  0
   99.3295   -3.1073   27.7408 C   0  0
   99.7639   -2.7775   29.7929 C   0  0
  100.3144   -2.6105   31.0561 C   0  0
   98.0982   -2.4405   31.9244 C   0  0
   98.4237   -2.7748   29.6391 C   0  0
   92.8130   -2.5350   21.4667 C   0  0
   92.9683   -4.2913   23.2619 C   0  0
   93.7593   -5.9511   22.1974 C   0  0
   94.1952   -7.1848   21.7356 C   0  0
   94.4135   -6.2168   19.5655 C   0  0
   93.6696   -4.9067   21.3468 C   0  0
   86.0520   -5.6149    8.0533 N   0  0
   83.8675   -5.1455    8.4061 N   0  0
   82.8454   -2.3802    8.9338 N   0  0
   85.1771   -1.7437    8.6967 N   0  0
   86.8747   -3.3516    8.2478 N   0  0
   89.7777   -6.5715   15.9096 N   0  0
   91.7509   -7.5669   16.3924 N   0  0
   94.1127   -7.5160   14.5522 N   0  0
   92.6417   -6.2443   13.1059 N   0  0
   90.4067   -5.7145   13.7359 N   0  0
   98.1234   -2.9762   28.3537 N   0  0
  100.3736   -2.9842   28.6101 N   0  0
  101.7227   -2.6134   31.2590 N   0  0
   99.4593   -2.4445   32.1082 N   0  0
   97.5661   -2.6095   30.6762 N   0  0
   93.1843   -3.8444   21.9984 N   0  0
   93.3252   -5.5986   23.4226 N   0  0
   94.2940   -8.3091   22.6002 N   0  0
   94.5195   -7.2903   20.4137 N   0  0
   93.9792   -5.0068   20.0297 N   0  0
  1  6  1  0
  1 50  1  0
  1 29  1  0
  2  7  1  0
  2  9  1  0
  2 10  1  0
  3 11  1  0
  3 13  1  0
  3 14  1  0
  4 21  1  0
  4 55  1  0
  4 27  1  0
 30  6  1  0
 30 31  1  0
 31 32  1  0
 31 18  1  0
 32 33  1  0
 32 17  1  0
 33  7  1  0
 34 10  1  0
 34 35  1  0
 35 36  1  0
 35 16  1  0
 36 37  1  0
 36 15  1  0
 37 11  1  0
 38 15  1  0
 38 72  1  0
 38 34  1  0
 40 73  1  0
 41 74  1  0
 41 75  1  0
 42 76  1  0
 43 72  1  0
 43 40  1  0
 44 17  1  0
 44 77  1  0
 44 30  1  0
 46 78  1  0
 47 79  1  0
 47 80  1  0
 48 81  1  0
 49 77  1  0
 49 46  1  0
 50 19  1  0
 51 19  1  0
 52 51  1  0
 52 53  1  0
 52 28  1  0
 53 20  1  0
 53 54  1  0
 54 21  1  0
 54 66  1  0
 55 23  1  0
 56 23  1  0
 57 56  1  0
 57 58  1  0
 57 26  1  0
 58 24  1  0
 58 59  1  0
 59 25  1  0
 59 60  1  0
 60 26  1  0
 60 82  1  0
 62 83  1  0
 63 84  1  0
 63 85  1  0
 64 86  1  0
 65 82  1  0
 65 62  1  0
 66 28  1  0
 66 87  1  0
 68 88  1  0
 69 89  1  0
 69 90  1  0
 70 91  1  0
 71 87  1  0
 71 68  1  0
 72 39  1  0
 77 45  1  0
 82 61  1  0
 87 67  1  0
  1  5  2  0
  2  8  2  0
  3 12  2  0
  4 22  2  0
 39 73  2  0
 40 41  2  0
 42 75  2  0
 43 76  2  0
 45 78  2  0
 46 47  2  0
 48 80  2  0
 49 81  2  0
 61 83  2  0
 62 63  2  0
 64 85  2  0
 65 86  2  0
 67 88  2  0
 68 69  2  0
 70 90  2  0
 71 91  2  0
M  END
> <Name>
CHEMBL2059854 PubChem-70688554

> <rmsd>
0.543645859

$$$$
CHEMBL1697823 3830332 ZINC000003830332
  SciTegic06052412183D

 42 46  0  0  0  0            999 V2000
   88.9690   -6.8961   10.6536 O   0  0
   89.1953   -8.8153   12.1560 O   0  0
   87.4883   -6.9489   12.7800 O   0  0
   98.6619   -2.1954   14.9046 O   0  0
   98.0964   -1.4672   18.1387 O   0  0
   97.9607   -1.4029   27.0991 O   0  0
   97.0629   -3.6785   27.0323 O   0  0
   99.6310   -3.3846   26.8429 O   0  0
   94.2883   -4.4100   18.8265 O   0  0
   88.9730   -7.3305   12.0928 S   0  0
   98.1153   -2.7610   26.4754 S   0  0
   90.2612   -6.5011   12.9696 C   0  0
   91.0955   -5.6338   12.2636 C   0  0
   92.1258   -4.9543   12.9091 C   0  0
   92.3536   -5.1179   14.2769 C   0  0
   94.8409   -3.6386   16.6065 C   0  0
   95.6626   -2.8875   15.7584 C   0  0
   96.7370   -2.1610   16.2713 C   0  0
   97.6037   -1.3933   15.3313 C   0  0
   97.0115   -2.1881   17.6479 C   0  0
   96.1869   -2.9433   18.5157 C   0  0
   97.5658   -2.4780   21.9302 C   0  0
   96.6881   -3.2229   22.7292 C   0  0
   96.8733   -3.2976   24.1093 C   0  0
   97.9371   -2.6314   24.7245 C   0  0
   98.8315   -1.8759   23.9376 C   0  0
   99.9093   -1.1912   24.5202 C   0  0
  100.7882   -0.4455   23.7323 C   0  0
  100.6012   -0.3741   22.3513 C   0  0
   99.5341   -1.0476   21.7541 C   0  0
   98.6419   -1.8010   22.5322 C   0  0
   95.1050   -3.6634   17.9826 C   0  0
   91.5174   -5.9969   15.0160 C   0  0
   91.7013   -6.2088   16.3921 C   0  0
   90.8745   -7.0790   17.1040 C   0  0
   89.8456   -7.7546   16.4504 C   0  0
   89.6436   -7.5615   15.0838 C   0  0
   90.4660   -6.6901   14.3519 C   0  0
   93.4468   -4.3772   14.8458 N   0  0
   93.7381   -4.3865   16.0845 N   0  0
   96.4104   -3.0051   19.9335 N   0  0
   97.3690   -2.4013   20.5127 N   0  0
 10  3  1  0
 10 12  1  0
 11 25  1  0
 11  8  1  0
 13 14  1  0
 15 39  1  0
 15 33  1  0
 16 40  1  0
 17 18  1  0
 19 18  1  0
 19  4  1  0
 20  5  1  0
 20 21  1  0
 21 41  1  0
 22 42  1  0
 23 24  1  0
 25 26  1  0
 27 28  1  0
 29 30  1  0
 31 22  1  0
 31 26  1  0
 32  9  1  0
 32 16  1  0
 34 35  1  0
 36 37  1  0
 38 12  1  0
 38 33  1  0
 10  1  2  0
 10  2  2  0
 11  6  2  0
 11  7  2  0
 12 13  2  0
 14 15  2  0
 16 17  2  0
 18 20  2  0
 21 32  2  0
 22 23  2  0
 24 25  2  0
 26 27  2  0
 28 29  2  0
 30 31  2  0
 33 34  2  0
 35 36  2  0
 37 38  2  0
 39 40  2  0
 41 42  2  0
M  END
> <Name>
CHEMBL1697823 3830332 ZINC000003830332

> <rmsd>
0.66080153

$$$$
CHEMBL4441156 PubChem-155515040
  SciTegic06052412183D

 87 88  0  0  0  0            999 V2000
   88.1652   -4.2498   11.3516 O   0  0
   89.4184   -4.2700    9.0681 O   0  0
   88.7952   -6.6086   10.0706 O   0  0
   90.8271   -5.0554   11.1663 O   0  0
   89.2162   -7.3242   15.0880 O   0  0
   88.3876   -8.3334   16.9056 O   0  0
   96.0728   -7.1921   17.3023 O   0  0
   98.2371   -5.0241   20.3698 O   0  0
   97.0975   -6.2608   23.7947 O   0  0
  101.5222   -4.3203   24.7276 O   0  0
  100.4841   -2.0969   27.8345 O   0  0
  100.9966    0.7355   23.8575 O   0  0
  100.3881   -0.4323   21.9813 O   0  0
   96.0285   -5.2859   27.0504 O   0  0
   97.3604   -3.4293   27.2481 O   0  0
   97.5276   -2.2434   20.8522 O   0  0
   94.6919   -9.2992   16.0523 O   0  0
   94.0906  -13.2466   18.2234 O   0  0
   90.2896  -16.1639   16.5356 O   0  0
   93.0952  -20.5813   16.1724 O   0  0
   91.1139  -22.7589   19.0792 O   0  0
   94.2941  -19.0314   20.3361 O   0  0
   95.5410  -20.6931   21.3054 O   0  0
   92.9802  -10.3164   13.3830 O   0  0
   94.6470  -11.8860   13.5412 O   0  0
   89.2998   -5.0249   10.3734 P   0  0
   91.0243   -5.6157   12.4328 C   0  0
   89.9833   -6.2328   13.1480 C   0  0
   90.2137   -6.7530   14.4227 C   0  0
   89.3702   -7.8134   16.3149 C   0  0
   90.6121   -7.7498   16.9533 C   0  0
   91.7014   -7.1791   16.2878 C   0  0
   93.0190   -7.0232   16.9960 C   0  0
   93.4037   -8.2650   17.7967 C   0  0
   95.7486   -7.4774   18.4875 C   0  0
   96.7465   -7.2980   19.5829 C   0  0
   97.0945   -5.1706   20.8770 C   0  0
   96.5841   -4.1963   21.8954 C   0  0
   97.7378   -5.1839   23.9259 C   0  0
   98.7842   -5.0717   24.9945 C   0  0
  100.6794   -3.4028   24.9326 C   0  0
  101.1210   -1.9812   25.0423 C   0  0
  101.6872   -1.9138   27.5123 C   0  0
  102.7233   -1.7813   28.5733 C   0  0
  101.7607   -1.5228   23.7506 C   0  0
  101.0302   -0.3430   23.2107 C   0  0
   98.2866   -5.5650   26.3524 C   0  0
   97.1586   -4.7569   26.8944 C   0  0
   96.3360   -2.8203   21.2765 C   0  0
   95.6321   -1.8992   22.2496 C   0  0
   97.0921   -8.6277   20.2658 C   0  0
   98.3913   -8.4922   21.0353 C   0  0
   95.9831   -9.1085   21.1922 C   0  0
   96.1344  -10.5879   21.4866 C   0  0
   93.7935   -9.4228   16.9264 C   0  0
   93.5154  -11.8736   16.3774 C   0  0
   93.3150  -13.0723   17.2488 C   0  0
   91.9547  -15.1113   17.8974 C   0  0
   91.3960  -16.2672   17.1309 C   0  0
   91.6173  -18.7071   16.4754 C   0  0
   92.3984  -19.8889   16.9635 C   0  0
   93.0569  -21.3699   18.9023 C   0  0
   92.2857  -22.6238   18.6337 C   0  0
   93.2717  -21.1925   20.3971 C   0  0
   94.3903  -20.2419   20.6690 C   0  0
   91.6475  -18.5656   14.9523 C   0  0
   90.7336  -19.5840   14.2914 C   0  0
   89.2865  -19.1449   14.4114 C   0  0
   91.0933  -19.6957   12.8313 C   0  0
   91.0191  -14.7006   19.0437 C   0  0
   91.7744  -13.9565   20.1239 C   0  0
   89.8297  -13.8735   18.5747 C   0  0
   92.7026  -11.9496   15.0914 C   0  0
   93.4471  -11.3292   13.9657 C   0  0
   91.5015   -6.6604   14.9994 C   0  0
   92.5405   -6.0558   14.2793 C   0  0
   92.3001   -5.5413   13.0038 C   0  0
   94.4351   -7.9650   18.7849 N   0  0
   96.2905   -6.2982   20.5351 N   0  0
   97.5043   -4.0988   23.0234 N   0  0
   99.2956   -3.7114   25.0945 N   0  0
  102.0658   -1.8204   26.1384 N   0  0
   93.1462  -10.6793   17.1204 N   0  0
   92.2514  -14.0013   17.0011 N   0  0
   92.1254  -17.4937   17.1044 N   0  0
   92.3537  -20.2170   18.3542 N   0  0
   92.8772  -23.6687   17.8686 N   0  0
 26  1  1  0
 26  3  1  0
 26  4  1  0
 27  4  1  0
 28 29  1  0
 29  5  1  0
 30  5  1  0
 30 31  1  0
 32 75  1  0
 33 32  1  0
 34 33  1  0
 34 78  1  0
 34 55  1  0
 36 35  1  0
 36 79  1  0
 36 51  1  0
 38 37  1  0
 38 80  1  0
 38 49  1  0
 40 39  1  0
 40 81  1  0
 40 47  1  0
 42 41  1  0
 42 82  1  0
 42 45  1  0
 44 43  1  0
 45 46  1  0
 46 13  1  0
 47 48  1  0
 48 15  1  0
 49 16  1  0
 49 50  1  0
 51 52  1  0
 51 53  1  0
 53 54  1  0
 55 83  1  0
 56 83  1  0
 56 57  1  0
 56 73  1  0
 57 84  1  0
 58 84  1  0
 58 59  1  0
 58 70  1  0
 59 85  1  0
 60 85  1  0
 60 61  1  0
 60 66  1  0
 61 86  1  0
 62 86  1  0
 62 63  1  0
 62 64  1  0
 63 87  1  0
 64 65  1  0
 65 23  1  0
 66 67  1  0
 67 68  1  0
 67 69  1  0
 70 71  1  0
 70 72  1  0
 73 74  1  0
 74 25  1  0
 75 76  1  0
 77 27  1  0
 78 35  1  0
 79 37  1  0
 80 39  1  0
 81 41  1  0
 82 43  1  0
 26  2  2  0
 27 28  2  0
 30  6  2  0
 31 32  2  0
 35  7  2  0
 37  8  2  0
 39  9  2  0
 41 10  2  0
 43 11  2  0
 46 12  2  0
 48 14  2  0
 55 17  2  0
 57 18  2  0
 59 19  2  0
 61 20  2  0
 63 21  2  0
 65 22  2  0
 74 24  2  0
 75 29  2  0
 76 77  2  0
M  END
> <Name>
CHEMBL4441156 PubChem-155515040

> <rmsd>
0.524882734

$$$$
CHEMBL3143462 PubChem-90663468
  SciTegic06052412183D

 93104  0  0  0  0            999 V2000
   98.1362   -1.6475   26.2569 N   0  0
   97.0046   -3.5511   26.7811 N   0  0
   99.2253   -2.5019   24.2782 N   0  0
   98.6982   -4.7700   23.7908 N   0  0
   97.2291   -6.0731   25.2065 N   0  0
   96.6885   -4.4562   20.5332 N   0  0
   96.5669   -6.7276   20.5898 N   0  0
   95.2903   -4.0516   22.4706 N   0  0
   94.4812   -6.0331   23.5118 N   0  0
   95.0479   -8.2383   22.6759 N   0  0
   91.1552   -6.8130   16.4389 N   0  0
   89.9980   -7.2157   14.5230 N   0  0
   92.8196   -5.3517   15.4617 N   0  0
   92.5446   -4.9825   13.1297 N   0  0
   90.7138   -5.9791   11.8893 N   0  0
   88.9630  -10.1935   12.5820 N   0  0
   86.7864   -9.5257   12.6930 N   0  0
   89.5884   -8.7329   10.7450 N   0  0
   87.8227   -7.3447    9.9596 N   0  0
   85.6084   -7.4268   10.9383 N   0  0
   97.2666   -2.2568   27.1080 C   0  0
   97.7521   -3.7305   25.6772 C   0  0
   98.4182   -2.5979   25.3611 C   0  0
   99.3582   -3.6062   23.4833 C   0  0
   97.8954   -4.8596   24.8872 C   0  0
   98.6273   -0.2736   26.2566 C   0  0
   97.5047    0.6899   25.9831 C   0  0
   96.1355   -1.0539   22.5257 C   0  0
   96.9989   -1.1413   21.2788 C   0  0
   97.0838   -3.1070   20.1347 C   0  0
   97.0664   -5.6282   19.9613 C   0  0
   95.8519   -6.1889   21.5973 C   0  0
   95.9194   -4.8380   21.5621 C   0  0
   94.5618   -4.6635   23.4542 C   0  0
   95.1225   -6.8193   22.5953 C   0  0
   95.9140   -2.3467   19.5612 C   0  0
   93.2563   -4.2026   19.1980 C   0  0
   92.4494   -5.4811   19.3998 C   0  0
   91.5438   -6.8486   17.8447 C   0  0
   90.1082   -7.4513   15.8606 C   0  0
   91.0330   -6.3853   14.2851 C   0  0
   91.7235   -6.1477   15.4230 C   0  0
   93.2315   -4.7655   14.2982 C   0  0
   91.4381   -5.7859   13.0977 C   0  0
   92.9645   -7.3126   18.0074 C   0  0
   92.3887  -10.0103   15.5508 C   0  0
   91.8846  -10.8611   14.4047 C   0  0
   90.2009  -10.9039   12.9326 C   0  0
   87.7506  -10.3466   13.1854 C   0  0
   87.4382   -8.8433   11.7377 C   0  0
   88.7298   -9.2401   11.6628 C   0  0
   89.1240   -7.7729    9.8884 C   0  0
   86.9575   -7.8704   10.8755 C   0  0
   91.3981  -10.4740   12.1084 C   0  0
   92.5295  -10.4230   13.1087 C   0  0
   93.3446   -6.7046   19.3254 C   0  0
   96.1573   -0.9406   20.0377 C   0  0
   97.9450    1.9349   26.7083 C   0  0
   99.0256    1.4380   27.6521 C   0  0
   98.6453    1.7599   29.0832 C   0  0
   96.4482   -1.3963   28.6069 Br  0  0
   98.1633   -5.7426   18.4036 Br  0  0
   88.8967   -8.5827   16.8036 Br  0  0
   87.4022  -11.5934   14.5940 Br  0  0
   97.3640    0.8932   24.6061 O   0  0
   94.9622    1.9272   24.5079 O   0  0
   95.5582    0.2143   22.6305 O   0  0
   97.6205   -2.4062   21.2307 O   0  0
   95.9410   -2.4284   18.1633 O   0  0
   93.4438   -1.5424   18.3525 O   0  0
   93.7609   -4.1508   17.8923 O   0  0
   91.4310   -5.5709   18.4232 O   0  0
   93.0394   -8.7084   18.0257 O   0  0
   94.6819   -7.9852   16.0375 O   0  0
   93.6821  -10.3957   15.9151 O   0  0
   90.4965  -10.7064   14.2914 O   0  0
   93.5664  -11.3016   12.7837 O   0  0
   91.6265  -11.4117   11.1001 O   0  0
   95.5927   -9.7153   17.7732 O   0  0
   93.0147   -7.5632   20.3782 O   0  0
   94.2855   -2.2384   15.9883 O   0  0
   96.9020   -0.2167   19.1029 O   0  0
   95.0730   -0.5759   25.2435 O   0  0
   99.1909    0.0478   27.5018 O   0  0
   99.7937    1.7979   29.8796 O   0  0
   98.9500   -0.1309   31.4535 O   0  0
  100.5383    1.6422   32.5330 O   0  0
   97.9250    2.2377   31.8932 O   0  0
   98.5057    2.8703   25.8331 O   0  0
   95.7212    0.6438   24.2613 P   0  0
   94.3257   -2.5614   17.6484 P   0  0
   94.2523   -9.1480   16.9107 P   0  0
   99.2864    1.3448   31.4340 P   0  0
  1 21  1  0
  6 31  1  0
 11 40  1  0
 16 49  1  0
 21 61  1  0
 22  2  1  0
 23  3  1  0
 23  1  1  0
 24  4  1  0
 25  5  1  0
 25 22  1  0
 26  1  1  0
 26 27  1  0
 26 84  1  0
 27 65  1  0
 27 58  1  0
 28 67  1  0
 29 28  1  0
 29 68  1  0
 30 68  1  0
 30  6  1  0
 30 36  1  0
 31 62  1  0
 32  7  1  0
 33  8  1  0
 33  6  1  0
 34  9  1  0
 35 10  1  0
 35 32  1  0
 36 69  1  0
 36 57  1  0
 37 71  1  0
 38 37  1  0
 38 72  1  0
 39 72  1  0
 39 11  1  0
 39 45  1  0
 40 63  1  0
 41 12  1  0
 42 13  1  0
 42 11  1  0
 43 14  1  0
 44 15  1  0
 44 41  1  0
 45 73  1  0
 45 56  1  0
 46 75  1  0
 47 46  1  0
 47 76  1  0
 48 76  1  0
 48 16  1  0
 48 54  1  0
 49 64  1  0
 50 17  1  0
 51 18  1  0
 51 16  1  0
 52 19  1  0
 53 20  1  0
 53 50  1  0
 54 55  1  0
 54 78  1  0
 55 77  1  0
 55 47  1  0
 56 80  1  0
 56 38  1  0
 57 82  1  0
 57 29  1  0
 58 59  1  0
 58 89  1  0
 59 84  1  0
 59 60  1  0
 60 85  1  0
 90 65  1  0
 90 67  1  0
 90 83  1  0
 91 69  1  0
 91 71  1  0
 91 81  1  0
 92 73  1  0
 92 75  1  0
 92 79  1  0
 93 85  1  0
 93 87  1  0
 93 88  1  0
 21  2  2  0
 22 23  2  0
 24  3  2  0
 25  4  2  0
 31  7  2  0
 32 33  2  0
 34  8  2  0
 35  9  2  0
 40 12  2  0
 41 42  2  0
 43 13  2  0
 44 14  2  0
 49 17  2  0
 50 51  2  0
 52 18  2  0
 53 19  2  0
 90 66  2  0
 91 70  2  0
 92 74  2  0
 93 86  2  0
M  END
> <Name>
CHEMBL3143462 PubChem-90663468

> <rmsd>
0.555609763

$$$$
CHEMBL2057586 PubChem-70692661
  SciTegic06052412183D

 91102  0  0  0  0            999 V2000
   81.5281   -1.9570    9.5352 P   0  0
   90.8540   -1.8784    9.5256 P   0  0
   93.3990   -3.4433   16.6134 P   0  0
   93.3717   -0.7904   23.4187 P   0  0
   82.0523   -0.6365    9.0260 O   0  0
   80.2533   -2.4714    8.5489 O   0  0
   80.9667   -1.7642   11.1204 O   0  0
   83.8774   -2.8114   10.3701 O   0  0
   87.4490   -0.5343    9.4976 O   0  0
   89.5150   -2.9036    9.3076 O   0  0
   90.4922   -0.4642    9.1158 O   0  0
   91.4175   -1.9384   11.1295 O   0  0
   92.0659   -0.2453   14.7961 O   0  0
   92.1136   -2.4485   16.1246 O   0  0
   93.0550   -4.8963   16.3708 O   0  0
   94.7953   -3.0489   15.7448 O   0  0
   92.5006   -3.1699   19.0962 O   0  0
   91.4456   -4.3546   22.8644 O   0  0
   93.6988   -1.8519   22.1309 O   0  0
   91.8762   -0.7318   23.6572 O   0  0
   94.1462   -1.3032   24.8374 O   0  0
   97.3915   -3.5281   26.5633 O   0  0
   95.6300   -3.7669   28.4647 O   0  0
   96.0257   -0.6544   26.8555 O   0  0
   93.9161    0.7605   23.0058 O   0  0
   94.2042   -4.6474   20.9425 O   0  0
   89.9947   -2.6382   13.4017 O   0  0
   92.0957   -2.4253    8.5179 O   0  0
   86.5589   -3.4981   11.1257 O   0  0
   82.8588   -3.1950    9.5009 C   0  0
   84.9861   -2.6116    9.5516 C   0  0
   86.2092   -2.3406   10.4036 C   0  0
   87.3586   -1.9231    9.5273 C   0  0
   88.5450   -2.4920   10.2298 C   0  0
   90.7083   -0.9623   11.8435 C   0  0
   90.5826   -1.3652   13.3042 C   0  0
   91.9394   -1.3672   13.9705 C   0  0
   91.9726   -2.6580   14.7479 C   0  0
   93.7069   -3.1933   18.3851 C   0  0
   92.2728   -4.4867   19.5307 C   0  0
   92.8013   -4.7121   20.9434 C   0  0
   92.2446   -3.6964   21.9307 C   0  0
   93.4582   -3.1406   22.6212 C   0  0
   95.5165   -1.2256   24.5609 C   0  0
   96.3408   -1.5454   25.8036 C   0  0
   96.1464   -2.9854   26.2392 C   0  0
   95.2717   -2.8620   27.4578 C   0  0
   95.4196   -1.4066   27.8839 C   0  0
   95.6166   -0.9307   30.3460 C   0  0
   97.7127   -1.0480   30.6718 C   0  0
   99.0181   -1.0133   31.1415 C   0  0
   99.7593   -1.4960   28.9278 C   0  0
   97.4725   -1.3143   29.3713 C   0  0
   94.5520   -4.1097   22.1871 C   0  0
   96.3363   -2.5075   21.3394 C   0  0
   98.0373   -3.1881   22.4008 C   0  0
   99.2961   -3.4609   22.9163 C   0  0
   98.3214   -5.2535   24.1638 C   0  0
   96.9790   -3.9356   22.7824 C   0  0
   90.6334   -3.3038   14.4631 C   0  0
   91.4894   -5.2197   13.0543 C   0  0
   90.8627   -6.9002   14.2024 C   0  0
   90.6466   -8.1410   14.7853 C   0  0
   89.6040   -7.0190   16.6156 C   0  0
   90.4393   -5.7778   14.8264 C   0  0
   87.9536   -3.6587   11.0160 C   0  0
   88.9730   -5.9569   11.0200 C   0  0
   88.3600   -6.7378    9.1423 C   0  0
   88.0995   -7.4756    7.9969 C   0  0
   86.8764   -5.6107    7.1519 C   0  0
   87.8764   -5.4823    9.2548 C   0  0
   96.1565   -1.2423   29.1391 N   0  0
   96.5594   -0.8068   31.3222 N   0  0
   99.3111   -0.7272   32.5046 N   0  0
  100.0281   -1.2400   30.2477 N   0  0
   98.4670   -1.5329   28.4757 N   0  0
   95.8881   -3.5154   22.1361 N   0  0
   97.6700   -2.2662   21.4921 N   0  0
  100.4344   -2.6919   22.5373 N   0  0
   99.4116   -4.5007   23.8016 N   0  0
   97.0855   -4.9727   23.6485 N   0  0
   90.8216   -4.7067   14.1219 N   0  0
   91.5334   -6.5830   13.0756 N   0  0
   91.0996   -9.3405   14.1691 N   0  0
   90.0134   -8.1747   15.9949 N   0  0
   89.8223   -5.7993   16.0298 N   0  0
   88.2579   -4.9658   10.4319 N   0  0
   89.0596   -7.0731   10.2413 N   0  0
   88.5978   -8.7974    7.8354 N   0  0
   87.3583   -6.8870    7.0108 N   0  0
   87.1361   -4.8915    8.2860 N   0  0
  1  6  1  0
  1  7  1  0
  1 30  1  0
  2 10  1  0
  2 12  1  0
  2 28  1  0
  3 14  1  0
  3 16  1  0
  3 39  1  0
  4 19  1  0
  4 21  1  0
  4 25  1  0
 30  8  1  0
 31  8  1  0
 32 31  1  0
 32 33  1  0
 32 29  1  0
 33  9  1  0
 33 34  1  0
 34 10  1  0
 34 66  1  0
 35 12  1  0
 36 35  1  0
 36 37  1  0
 36 27  1  0
 37 13  1  0
 37 38  1  0
 38 14  1  0
 38 60  1  0
 39 17  1  0
 40 17  1  0
 41 40  1  0
 41 42  1  0
 41 26  1  0
 42 18  1  0
 42 43  1  0
 43 19  1  0
 43 54  1  0
 44 21  1  0
 45 44  1  0
 45 46  1  0
 45 24  1  0
 46 22  1  0
 46 47  1  0
 47 23  1  0
 47 48  1  0
 48 24  1  0
 48 72  1  0
 50 73  1  0
 51 74  1  0
 51 75  1  0
 52 76  1  0
 53 72  1  0
 53 50  1  0
 54 26  1  0
 54 77  1  0
 56 78  1  0
 57 79  1  0
 57 80  1  0
 58 81  1  0
 59 77  1  0
 59 56  1  0
 60 27  1  0
 60 82  1  0
 62 83  1  0
 63 84  1  0
 63 85  1  0
 64 86  1  0
 65 82  1  0
 65 62  1  0
 66 29  1  0
 66 87  1  0
 68 88  1  0
 69 89  1  0
 69 90  1  0
 70 91  1  0
 71 87  1  0
 71 68  1  0
 72 49  1  0
 77 55  1  0
 82 61  1  0
 87 67  1  0
  1  5  2  0
  2 11  2  0
  3 15  2  0
  4 20  2  0
 49 73  2  0
 50 51  2  0
 52 75  2  0
 53 76  2  0
 55 78  2  0
 56 57  2  0
 58 80  2  0
 59 81  2  0
 61 83  2  0
 62 63  2  0
 64 85  2  0
 65 86  2  0
 67 88  2  0
 68 69  2  0
 70 90  2  0
 71 91  2  0
M  END
> <Name>
CHEMBL2057586 PubChem-70692661

> <rmsd>
0.644923627

$$$$
CHEMBL2057587 PubChem-70682095
  SciTegic06052412183D

 91102  0  0  0  0            999 V2000
   85.2039   -9.8367   10.3492 P   0  0
   87.9494   -3.1291   12.1728 P   0  0
   91.4671   -3.3037   18.7493 P   0  0
   97.0177   -7.0546   24.4083 P   0  0
   84.7555  -11.2788   10.3193 O   0  0
   85.7194   -9.3807    8.8052 O   0  0
   83.9103   -8.8557   10.8234 O   0  0
   87.1533   -8.3939   11.3987 O   0  0
   89.3912   -6.6811   12.4851 O   0  0
   88.7025   -3.9918   10.9181 O   0  0
   88.7941   -1.9151   12.4970 O   0  0
   87.8049   -4.1047   13.5584 O   0  0
   89.0600   -1.4430   16.2291 O   0  0
   89.9180   -3.0250   18.1053 O   0  0
   92.5214   -2.6963   17.8530 O   0  0
   91.5609   -2.5847   20.2779 O   0  0
   92.9940   -5.3207   19.5099 O   0  0
   93.4634   -5.5610   22.2220 O   0  0
   95.8458   -7.6944   23.3486 O   0  0
   98.3818   -7.5329   23.9594 O   0  0
   96.9504   -5.3531   24.4317 O   0  0
   99.9875   -2.2787   24.9576 O   0  0
   98.9992   -0.9364   26.9499 O   0  0
   97.2399   -3.6359   26.6989 O   0  0
   96.7182   -7.6363   25.9684 O   0  0
   95.4301   -6.6428   20.0739 O   0  0
   87.8802   -4.7650   16.2585 O   0  0
   86.4192   -2.6193   11.6582 O   0  0
   88.1091   -6.9105    9.2010 O   0  0
   86.5784   -9.6566   11.5285 C   0  0
   88.4107   -8.6470   10.8482 C   0  0
   88.9853   -7.3861   10.1949 C   0  0
   89.3154   -6.2576   11.1570 C   0  0
   88.1923   -5.2916   10.9799 C   0  0
   87.1094   -3.3272   14.4938 C   0  0
   87.7665   -3.4192   15.8623 C   0  0
   89.1362   -2.7847   15.8479 C   0  0
   89.9145   -3.6091   16.8330 C   0  0
   91.7561   -5.0872   18.9152 C   0  0
   93.0327   -6.7078   19.6751 C   0  0
   94.2074   -7.1348   20.5488 C   0  0
   94.0871   -6.7954   22.0278 C   0  0
   95.5239   -6.6748   22.4483 C   0  0
   98.1884   -4.9296   24.9193 C   0  0
   98.0590   -3.5573   25.5550 C   0  0
   99.4278   -3.0717   25.9620 C   0  0
   99.1689   -2.2961   27.2212 C   0  0
   97.8485   -2.8609   27.7085 C   0  0
   97.5301   -3.4160   30.1372 C   0  0
   98.5387   -5.2784   30.3120 C   0  0
   99.0817   -6.4992   30.6860 C   0  0
   99.8559   -6.7602   28.4424 C   0  0
   98.6654   -4.8455   29.0395 C   0  0
   96.3061   -6.8402   21.1531 C   0  0
   98.7314   -6.1943   21.0619 C   0  0
   98.6411   -4.0768   21.1776 C   0  0
   98.8644   -2.7099   21.2748 C   0  0
   96.4979   -2.4013   21.3500 C   0  0
   97.3779   -4.5529   21.1687 C   0  0
   89.1366   -4.9150   16.8799 C   0  0
   89.6018   -7.3439   16.4757 C   0  0
   91.2155   -7.3031   15.0963 C   0  0
   92.2281   -7.5650   14.1834 C   0  0
   92.4999   -5.2100   13.9183 C   0  0
   90.8811   -6.0289   15.3893 C   0  0
   87.5862   -5.6750    9.6407 C   0  0
   85.3041   -5.5783   10.7716 C   0  0
   84.0161   -5.9841    9.1354 C   0  0
   82.9694   -6.2329    8.2604 C   0  0
   84.5810   -6.5020    6.5211 C   0  0
   85.2885   -5.9967    8.6857 C   0  0
   98.0385   -3.6717   28.9049 N   0  0
   97.8261   -4.3963   31.0393 N   0  0
   98.9497   -6.9963   32.0133 N   0  0
   99.7394   -7.2233   29.7302 N   0  0
   99.3137   -5.5584   28.0844 N   0  0
   97.4113   -5.8890   21.0955 N   0  0
   99.5278   -5.0880   21.1079 N   0  0
  100.1821   -2.1707   21.2991 N   0  0
   97.7728   -1.8914   21.3613 N   0  0
   96.2898   -3.7506   21.2540 N   0  0
   89.8639   -6.0278   16.2673 N   0  0
   90.4263   -8.1637   15.7653 N   0  0
   92.5968   -8.8978   13.8438 N   0  0
   92.8594   -6.4979   13.6097 N   0  0
   91.4971   -4.9652   14.8149 N   0  0
   86.1234   -5.7457    9.6983 N   0  0
   83.9851   -5.7180   10.4525 N   0  0
   81.6156   -6.2320    8.6992 N   0  0
   83.2795   -6.4914    6.9543 N   0  0
   85.6055   -6.2533    7.3921 N   0  0
  1  6  1  0
  1  7  1  0
  1 30  1  0
  2 10  1  0
  2 12  1  0
  2 28  1  0
  3 14  1  0
  3 16  1  0
  3 39  1  0
  4 19  1  0
  4 21  1  0
  4 25  1  0
 30  8  1  0
 31  8  1  0
 32 31  1  0
 32 33  1  0
 32 29  1  0
 33  9  1  0
 33 34  1  0
 34 10  1  0
 34 66  1  0
 35 12  1  0
 36 35  1  0
 36 37  1  0
 36 27  1  0
 37 13  1  0
 37 38  1  0
 38 14  1  0
 38 60  1  0
 39 17  1  0
 40 17  1  0
 41 40  1  0
 41 42  1  0
 41 26  1  0
 42 18  1  0
 42 43  1  0
 43 19  1  0
 43 54  1  0
 44 21  1  0
 45 44  1  0
 45 46  1  0
 45 24  1  0
 46 22  1  0
 46 47  1  0
 47 23  1  0
 47 48  1  0
 48 24  1  0
 48 72  1  0
 50 73  1  0
 51 74  1  0
 51 75  1  0
 52 76  1  0
 53 72  1  0
 53 50  1  0
 54 26  1  0
 54 77  1  0
 56 78  1  0
 57 79  1  0
 57 80  1  0
 58 81  1  0
 59 77  1  0
 59 56  1  0
 60 27  1  0
 60 82  1  0
 62 83  1  0
 63 84  1  0
 63 85  1  0
 64 86  1  0
 65 82  1  0
 65 62  1  0
 66 29  1  0
 66 87  1  0
 68 88  1  0
 69 89  1  0
 69 90  1  0
 70 91  1  0
 71 87  1  0
 71 68  1  0
 72 49  1  0
 77 55  1  0
 82 61  1  0
 87 67  1  0
  1  5  2  0
  2 11  2  0
  3 15  2  0
  4 20  2  0
 49 73  2  0
 50 51  2  0
 52 75  2  0
 53 76  2  0
 55 78  2  0
 56 57  2  0
 58 80  2  0
 59 81  2  0
 61 83  2  0
 62 63  2  0
 64 85  2  0
 65 86  2  0
 67 88  2  0
 68 69  2  0
 70 90  2  0
 71 91  2  0
M  END
> <Name>
CHEMBL2057587 PubChem-70682095

> <rmsd>
0.586915135

$$$$
CHEMBL322928
  SciTegic06052412183D

 56 61  0  0  0  0            999 V2000
   95.7280    0.1132   28.9002 C   0  0
   96.4222   -0.9175   30.8694 C   0  0
   94.6971   -1.8579   29.6098 C   0  0
   94.7112   -3.1192   28.7626 C   0  0
   95.8274   -3.1150   26.4993 C   0  0
   95.7994   -2.7228   25.0669 C   0  0
   94.6120   -2.1906   24.5559 C   0  0
   94.5141   -1.8053   23.2246 C   0  0
   95.6023   -1.9331   22.3562 C   0  0
   94.1905   -1.1801   20.3645 C   0  0
   93.3316   -2.4231   20.1677 C   0  0
   93.9150   -3.3417   19.1037 C   0  0
   95.9440   -4.4160   18.5311 C   0  0
   94.5989   -5.3080   20.3171 C   0  0
   94.0283   -6.3886   19.3893 C   0  0
   92.5519   -6.1631   19.1227 C   0  0
   91.5772   -6.3397   16.7791 C   0  0
   90.8769   -7.4970   17.1354 C   0  0
   90.0995   -8.1779   16.2061 C   0  0
   89.9952   -7.7290   14.8870 C   0  0
   89.1704   -8.5260   13.9427 C   0  0
   88.4836   -9.0836   11.5771 C   0  0
   88.8340   -8.6472   10.1633 C   0  0
   87.1810   -7.2067    9.3542 C   0  0
   89.4233   -6.7308    8.9754 C   0  0
   90.6819   -6.5495   14.5072 C   0  0
   91.2021   -4.9535   12.8151 C   0  0
   91.0455   -4.5200   11.4951 C   0  0
   91.7022   -3.3681   11.0545 C   0  0
   92.5159   -2.6454   11.9321 C   0  0
   92.6742   -3.0739   13.2530 C   0  0
   92.0195   -4.2303   13.7039 C   0  0
   92.1599   -4.6754   15.0252 C   0  0
   91.4841   -5.8463   15.4527 C   0  0
   96.8251   -2.4638   22.8403 C   0  0
   97.9668   -2.6231   22.0148 C   0  0
   99.1497   -3.1497   22.5529 C   0  0
  100.2966   -3.3158   21.7625 C   0  0
  101.4672   -3.8388   22.3199 C   0  0
  101.4997   -4.1985   23.6699 C   0  0
  100.3613   -4.0369   24.4647 C   0  0
   99.1881   -3.5155   23.9115 C   0  0
   96.9163   -2.8605   24.2066 C   0  0
   95.9781   -1.1802   29.5119 N   0  0
   94.7325   -2.7677   27.3514 N   0  0
   95.4628   -1.5214   20.9893 N   0  0
   95.0529   -4.0857   19.6346 N   0  0
   92.3743   -5.6725   17.7655 N   0  0
   89.3008   -8.3535   12.5317 N   0  0
   88.4953   -7.2479    9.9649 N   0  0
   90.5678   -6.0736   13.2372 N   0  0
   98.0875   -3.3631   24.6857 N   0  0
   96.8056   -3.7500   26.9761 O   0  0
   88.3683   -9.3920   14.3891 O   0  0
   92.9682   -3.9480   15.8957 O   0  0
   97.9409   -2.2650   20.6693 O   0  0
  1 44  1  0
  2 44  1  0
  3 44  1  0
  3  4  1  0
  4 45  1  0
  5  6  1  0
  7  8  1  0
  9 46  1  0
  9 35  1  0
 10 46  1  0
 10 11  1  0
 11 12  1  0
 12 47  1  0
 13 47  1  0
 14 47  1  0
 14 15  1  0
 15 16  1  0
 16 48  1  0
 18 19  1  0
 20 21  1  0
 20 26  1  0
 21 49  1  0
 22 49  1  0
 22 23  1  0
 23 50  1  0
 24 50  1  0
 25 50  1  0
 27 51  1  0
 28 29  1  0
 30 31  1  0
 32 33  1  0
 32 27  1  0
 33 55  1  0
 34 17  1  0
 34 26  1  0
 36 56  1  0
 36 37  1  0
 38 39  1  0
 40 41  1  0
 42 52  1  0
 42 37  1  0
 43  6  1  0
 43 35  1  0
 45  5  1  0
 48 17  1  0
  5 53  2  0
  6  7  2  0
  8  9  2  0
 17 18  2  0
 19 20  2  0
 21 54  2  0
 26 51  2  0
 27 28  2  0
 29 30  2  0
 31 32  2  0
 33 34  2  0
 35 36  2  0
 37 38  2  0
 39 40  2  0
 41 42  2  0
 43 52  2  0
M  END
> <Name>
CHEMBL322928

> <rmsd>
0.463498294

$$$$
CHEMBL3144375 PubChem-90663921
  SciTegic06052412183D

 85 96  0  0  0  0            999 V2000
   95.2562   -6.8834   25.0886 N   0  0
   94.5823   -8.9613   25.6557 N   0  0
   94.1470   -7.3807   28.9247 N   0  0
   94.9504   -5.8724   27.2673 N   0  0
   93.6814   -9.7034   28.4049 N   0  0
   95.3599   -3.2369   20.3092 N   0  0
   97.3354   -2.2432   20.8219 N   0  0
   95.1753   -0.1687   22.9193 N   0  0
   93.9722   -1.8246   21.7068 N   0  0
   97.5802    0.0639   22.7340 N   0  0
   92.7470   -6.6965   14.3257 N   0  0
   91.5532   -4.7728   14.2496 N   0  0
   89.0815   -6.8459   15.9656 N   0  0
   91.0888   -8.0191   15.4749 N   0  0
   88.7736   -4.5210   15.3434 N   0  0
   91.0946   -4.0526    7.4750 N   0  0
   92.1108   -2.8042    5.8800 N   0  0
   91.4653   -5.7768    3.8409 N   0  0
   90.7074   -6.0135    6.0878 N   0  0
   92.5285   -3.7285    3.0592 N   0  0
   94.9347   -6.9050   26.3862 C   0  0
   94.5308   -8.1442   26.7224 C   0  0
   95.0371   -8.1502   24.6616 C   0  0
   94.1293   -8.4109   28.0232 C   0  0
   94.5467   -6.1189   28.5510 C   0  0
   95.7695   -5.7846   24.2921 C   0  0
   94.8132   -4.6137   24.3413 C   0  0
   91.5592   -5.4714   21.3723 C   0  0
   92.5604   -5.2838   20.2324 C   0  0
   94.3981   -4.1271   19.6516 C   0  0
   95.1540   -2.2424   21.1830 C   0  0
   96.3290   -1.6584   21.4956 C   0  0
   96.7032   -3.2056   20.0902 C   0  0
   96.3612   -0.5908   22.3867 C   0  0
   93.9928   -0.7812   22.5927 C   0  0
   94.8447   -5.5754   19.7561 C   0  0
   96.7060   -7.0344   16.0890 C   0  0
   95.9091   -7.7645   15.0216 C   0  0
   93.8122   -7.6849   14.1770 C   0  0
   91.5555   -6.8865   14.9004 C   0  0
   90.8385   -5.7479   14.8492 C   0  0
   92.7243   -5.3921   13.9301 C   0  0
   89.5654   -5.7041   15.3907 C   0  0
   89.8303   -7.9970   16.0068 C   0  0
   94.7385   -7.3348   13.0324 C   0  0
   91.6511   -7.5194   10.0959 C   0  0
   90.7684   -6.2851   10.0200 C   0  0
   90.5522   -4.4361    8.7735 C   0  0
   91.1735   -4.7584    6.3337 C   0  0
   91.7701   -4.0101    5.3819 C   0  0
   91.6805   -2.8610    7.1739 C   0  0
   91.9344   -4.5183    4.0959 C   0  0
   90.8615   -6.5226    4.8267 C   0  0
   89.2399   -5.2002    8.6382 C   0  0
   89.5721   -6.5564    9.1517 C   0  0
   96.0542   -7.0734   13.6972 C   0  0
   93.6787   -6.2831   20.3737 C   0  0
   95.6985   -3.4214   24.4986 C   0  0
   97.0974   -3.9996   24.5596 C   0  0
   97.8820   -3.3366   25.6817 C   0  0
   94.0982   -4.5317   23.1504 O   0  0
   92.1069   -3.8076   24.7075 O   0  0
   91.5100   -4.3577   22.2285 O   0  0
   93.1128   -3.9930   20.2076 O   0  0
   95.0943   -6.0849   18.4739 O   0  0
   97.6999   -5.7282   18.5264 O   0  0
   96.8278   -7.8428   17.2288 O   0  0
   94.5439   -7.7890   15.3785 O   0  0
   94.8631   -8.4444   12.1931 O   0  0
   93.8167   -9.3118    9.9529 O   0  0
   92.4565   -7.4404   11.2360 O   0  0
   91.4901   -5.2063    9.4798 O   0  0
   88.5178   -7.0348    9.9306 O   0  0
   94.8247   -6.8948    9.9006 O   0  0
   96.7916   -7.6988   19.9726 O   0  0
   92.2064   -6.3438   24.0597 O   0  0
   97.0222   -5.3815   24.7851 O   0  0
   97.3188   -3.6293   26.9289 O   0  0
   98.3480   -1.5438   28.1322 O   0  0
   96.0165   -2.3664   29.0028 O   0  0
   96.2800   -1.0621   26.5939 O   0  0
   92.4693   -4.7408   23.5733 P   0  0
   96.6306   -6.7978   18.5498 P   0  0
   93.9780   -8.0585   10.7929 P   0  0
   97.0313   -2.1297   27.6687 P   0  0
  1 21  1  0
  6 31  1  0
 11 40  1  0
 16 49  1  0
 21  4  1  0
 22  2  1  0
 22 24  1  0
 23  1  1  0
 24  5  1  0
 25  3  1  0
 26  1  1  0
 26 27  1  0
 26 77  1  0
 27 61  1  0
 27 58  1  0
 28 63  1  0
 29 28  1  0
 29 64  1  0
 30 64  1  0
 30  6  1  0
 30 36  1  0
 31  9  1  0
 32  7  1  0
 32 34  1  0
 33  6  1  0
 34 10  1  0
 35  8  1  0
 36 65  1  0
 36 57  1  0
 37 67  1  0
 38 37  1  0
 38 68  1  0
 39 68  1  0
 39 11  1  0
 39 45  1  0
 40 14  1  0
 41 12  1  0
 41 43  1  0
 42 11  1  0
 43 15  1  0
 44 13  1  0
 45 69  1  0
 45 56  1  0
 46 71  1  0
 47 46  1  0
 47 72  1  0
 48 72  1  0
 48 16  1  0
 48 54  1  0
 49 19  1  0
 50 17  1  0
 50 52  1  0
 51 16  1  0
 52 20  1  0
 53 18  1  0
 54 55  1  0
 55 73  1  0
 55 47  1  0
 56 38  1  0
 57 29  1  0
 58 59  1  0
 59 77  1  0
 59 60  1  0
 60 78  1  0
 82 61  1  0
 82 63  1  0
 82 76  1  0
 83 65  1  0
 83 67  1  0
 83 75  1  0
 84 69  1  0
 84 71  1  0
 84 74  1  0
 85 78  1  0
 85 80  1  0
 85 81  1  0
 21 22  2  0
 23  2  2  0
 24  3  2  0
 25  4  2  0
 31 32  2  0
 33  7  2  0
 34  8  2  0
 35  9  2  0
 40 41  2  0
 42 12  2  0
 43 13  2  0
 44 14  2  0
 49 50  2  0
 51 17  2  0
 52 18  2  0
 53 19  2  0
 82 62  2  0
 83 66  2  0
 84 70  2  0
 85 79  2  0
M  END
> <Name>
CHEMBL3144375 PubChem-90663921

> <rmsd>
0.441483557

$$$$
CHEMBL217236 PubChem-44327580
  SciTegic06052412183D

 82 85  0  0  0  0            999 V2000
   94.1536   -8.7644   19.6996 C   0  0
   95.1228   -7.8927   18.9216 C   0  0
   94.3937   -7.1395   17.8195 C   0  0
   93.5487   -6.0055   18.3822 C   0  0
   94.3848   -4.7459   18.6053 C   0  0
   94.7607   -5.0815   21.1171 C   0  0
   95.7213   -5.5303   22.1765 C   0  0
   95.0392   -6.1261   23.4026 C   0  0
   95.3422   -7.5798   23.4991 C   0  0
   96.6470   -8.0202   23.7466 C   0  0
   96.9181   -9.3861   23.8474 C   0  0
   95.8858  -10.3252   23.7123 C   0  0
   94.5833   -9.8787   23.4697 C   0  0
   94.3110   -8.5116   23.3631 C   0  0
   96.2531   -3.2379   23.1850 C   0  0
   97.3185   -2.2987   23.6671 C   0  0
   97.2108   -2.0640   25.1700 C   0  0
   97.5441   -3.3040   25.9334 C   0  0
   97.6434   -0.8637   21.6095 C   0  0
   97.5105    0.4625   20.9563 C   0  0
   93.5425   -3.5011   18.6906 C   0  0
   91.2368   -2.4369   18.5738 C   0  0
   91.1323   -2.1290   17.1206 C   0  0
   90.2392   -2.8188   14.8558 C   0  0
   91.5314   -3.5078   14.3734 C   0  0
   91.5118   -5.0110   14.3588 C   0  0
   91.8793   -5.7950   13.2684 C   0  0
   91.3526   -7.1482   14.8505 C   0  0
   91.0912   -8.2892   15.6049 C   0  0
   90.6377   -8.1108   16.9253 C   0  0
   90.4558   -6.8143   17.4541 C   0  0
   90.7271   -5.6830   16.6679 C   0  0
   91.1805   -5.8899   15.3639 C   0  0
   88.9662   -3.3472   14.2502 C   0  0
   87.8728   -4.8955   12.5057 C   0  0
   87.1562   -5.7377   13.5502 C   0  0
   88.0382   -6.8991   13.9691 C   0  0
   87.3053   -7.8097   14.9317 C   0  0
   86.3315   -8.6949   14.1782 C   0  0
   86.9218   -4.0232   11.7316 C   0  0
   85.2489   -3.7344    9.8940 C   0  0
   86.1145   -6.0409   10.4663 C   0  0
   84.7210   -6.6571   10.3363 C   0  0
   84.7457   -8.1146   10.6549 C   0  0
   86.9876   -6.3324    9.2868 C   0  0
   87.3217   -6.2463    6.7493 C   0  0
   88.5878   -5.3850    6.7428 C   0  0
   88.2760   -3.9487    6.4749 C   0  0
   88.6791   -3.3743    5.2640 C   0  0
   88.4101   -2.0253    5.0063 C   0  0
   87.7374   -1.2501    5.9568 C   0  0
   87.3355   -1.8238    7.1653 C   0  0
   87.6093   -3.1690    7.4262 C   0  0
   87.6153   -7.7098    6.5619 C   0  0
   95.2434   -4.8925   19.7820 N   0  0
   96.6425   -4.4667   22.5593 N   0  0
   97.2275   -1.0226   22.9664 N   0  0
   92.1139   -3.5847   18.7692 N   0  0
   90.1707   -2.8154   16.3135 N   0  0
   91.7805   -7.1133   13.5768 N   0  0
   89.0043   -4.1585   13.0689 N   0  0
   86.0533   -4.6032   10.7420 N   0  0
   86.5364   -6.0243    7.9623 N   0  0
   88.9554   -8.1939    6.5129 N   0  0
   93.5459   -4.8702   21.3945 O   0  0
   96.1220  -11.6989   23.8128 O   0  0
   97.5562  -13.8584   24.2097 O   0  0
   98.5797  -12.0315   22.9338 O   0  0
   98.3233  -11.7474   25.5076 O   0  0
   95.0331   -2.9506   23.3383 O   0  0
   96.6812   -3.8217   26.6913 O   0  0
   98.8003   -3.8861   25.8142 O   0  0
   98.1263   -1.8321   20.9643 O   0  0
   94.1076   -2.3758   18.6751 O   0  0
   91.9431   -1.3200   16.5986 O   0  0
   87.8609   -3.0509   14.7780 O   0  0
   86.8913   -2.7802   11.9451 O   0  0
   84.0790   -8.5510   11.6285 O   0  0
   85.4843   -8.9958    9.8770 O   0  0
   88.1254   -6.8381    9.4769 O   0  0
   86.6594   -8.5199    6.4471 O   0  0
   97.6736  -12.3677   24.0874 S   0  0
  1  2  1  0
  2  3  1  0
  3  4  1  0
  5  4  1  0
  5 55  1  0
  5 21  1  0
  7  6  1  0
  7  8  1  0
  7 56  1  0
  8  9  1  0
 10 11  1  0
 12 66  1  0
 12 13  1  0
 14  9  1  0
 16 15  1  0
 16 17  1  0
 16 57  1  0
 17 18  1  0
 18 72  1  0
 20 19  1  0
 21 58  1  0
 22 58  1  0
 22 23  1  0
 23 59  1  0
 24 59  1  0
 24 25  1  0
 24 34  1  0
 25 26  1  0
 27 60  1  0
 29 30  1  0
 31 32  1  0
 33 26  1  0
 33 28  1  0
 34 61  1  0
 35 61  1  0
 35 36  1  0
 35 40  1  0
 36 37  1  0
 37 38  1  0
 38 39  1  0
 40 62  1  0
 41 62  1  0
 42 62  1  0
 42 43  1  0
 42 45  1  0
 43 44  1  0
 44 79  1  0
 45 63  1  0
 46 63  1  0
 46 47  1  0
 46 54  1  0
 47 48  1  0
 49 50  1  0
 51 52  1  0
 53 48  1  0
 54 64  1  0
 55  6  1  0
 56 15  1  0
 57 19  1  0
 60 28  1  0
 82 66  1  0
 82 69  1  0
  6 65  2  0
  9 10  2  0
 11 12  2  0
 13 14  2  0
 15 70  2  0
 18 71  2  0
 19 73  2  0
 21 74  2  0
 23 75  2  0
 26 27  2  0
 28 29  2  0
 30 31  2  0
 32 33  2  0
 34 76  2  0
 40 77  2  0
 44 78  2  0
 45 80  2  0
 48 49  2  0
 50 51  2  0
 52 53  2  0
 54 81  2  0
 82 67  2  0
 82 68  2  0
M  END
> <Name>
CHEMBL217236 PubChem-44327580

> <rmsd>
0.636835873

$$$$
CHEMBL607505 PubChem-46876534
  SciTegic06052412183D

 44 49  0  0  0  0            999 V2000
   89.9046   -7.3120   14.0408 N   0  0
   90.0312   -6.7983   16.2406 N   0  0
   92.7502   -4.6611   15.0606 N   0  0
   91.7132   -5.8834   13.3039 N   0  0
   93.5442   -4.3968   12.7923 N   0  0
   92.0099   -4.8697   17.3767 N   0  0
   93.8220   -1.3838   19.2517 N   0  0
   96.4106   -1.7813   23.0782 N   0  0
   94.3921   -1.2869   22.1816 N   0  0
   97.5378   -2.2882   21.0019 N   0  0
   96.1573   -2.0631   19.0783 N   0  0
   98.4627   -2.7449   18.8196 N   0  0
   90.8910   -6.4286   14.2332 C   0  0
   90.9665   -6.1233   15.5457 C   0  0
   89.3904   -7.5225   15.2787 C   0  0
   91.9142   -5.2139   15.9924 C   0  0
   92.6551   -4.9885   13.7309 C   0  0
   92.9569   -3.8832   17.8770 C   0  0
   92.5195   -2.4786   17.4844 C   0  0
   93.6037   -1.4619   17.8139 C   0  0
   95.0862   -1.6875   19.8423 C   0  0
   95.2697   -1.6177   21.2154 C   0  0
   96.4722   -1.9155   21.7511 C   0  0
   97.4728   -2.0271   24.0453 C   0  0
   97.1681   -3.2728   24.8553 C   0  0
   96.9397   -2.7330   26.2402 C   0  0
   97.6483   -1.4057   26.2139 C   0  0
   96.9566   -0.4337   27.1523 C   0  0
   95.1294   -1.4003   23.3231 C   0  0
   97.3711   -2.3608   19.6462 C   0  0
   89.4370   -7.9030   12.7932 C   0  0
   88.8059   -6.8466   11.9120 C   0  0
   89.3342   -7.1661   10.5332 C   0  0
   90.1753   -8.4058   10.7435 C   0  0
   91.4439   -8.3343    9.9123 C   0  0
   97.6139   -0.9122   24.8979 O   0  0
   97.6850    0.7533   27.2264 O   0  0
   97.4828   -3.5619   27.2259 O   0  0
   98.2799   -4.1192   24.8159 O   0  0
   91.3286   -2.1427   18.1317 O   0  0
   90.5089   -8.4933   12.1038 O   0  0
   91.1390   -8.4889    8.5595 O   0  0
   88.3087   -7.4386    9.6231 O   0  0
   87.4140   -6.9494   11.9831 O   0  0
  1 13  1  0
  7 21  1  0
  8 29  1  0
 13  4  1  0
 14  2  1  0
 14 16  1  0
 15  1  1  0
 16  6  1  0
 17  3  1  0
 17  5  1  0
 18  6  1  0
 18 19  1  0
 19 20  1  0
 19 40  1  0
 20  7  1  0
 21 22  1  0
 22  9  1  0
 23  8  1  0
 23 10  1  0
 24  8  1  0
 24 25  1  0
 24 36  1  0
 25 26  1  0
 25 39  1  0
 26 27  1  0
 26 38  1  0
 27 36  1  0
 27 28  1  0
 28 37  1  0
 30 11  1  0
 30 12  1  0
 31  1  1  0
 31 32  1  0
 31 41  1  0
 32 33  1  0
 32 44  1  0
 33 34  1  0
 33 43  1  0
 34 41  1  0
 34 35  1  0
 35 42  1  0
 13 14  2  0
 15  2  2  0
 16  3  2  0
 17  4  2  0
 21 11  2  0
 22 23  2  0
 29  9  2  0
 30 10  2  0
M  END
> <Name>
CHEMBL607505 PubChem-46876534

> <rmsd>
0.619970143

$$$$
CHEMBL1160363 PubChem-10533573
  SciTegic06052412183D

 44 46  0  0  0  0            999 V2000
   88.6125   -5.4155   10.1931 C   0  0
   88.3075   -7.1255   11.5601 C   0  0
   89.5434   -7.8009   12.1212 C   0  0
   90.0978   -7.5393   14.5978 C   0  0
   90.5648   -7.4298   16.9410 C   0  0
   91.5088   -9.2602   18.5432 C   0  0
   92.7819   -8.7039   19.1575 C   0  0
   93.8952   -9.7404   19.1557 C   0  0
   91.7423   -6.0578   15.4703 C   0  0
   91.0728   -6.5571   14.4077 C   0  0
   92.4322   -5.0748   13.7107 C   0  0
   93.5421   -4.3252   15.8374 C   0  0
   94.6156   -4.7802   17.7737 C   0  0
   94.9286   -5.9983   18.6309 C   0  0
   97.1570   -2.9755   23.5776 C   0  0
   93.3146   -4.1406   18.1870 C   0  0
   92.8147   -3.5296   16.9058 C   0  0
   88.5137   -6.8085   10.2170 O   0  0
   94.5055   -5.1687   16.4282 O   0  0
   95.1582   -5.6225   19.9578 O   0  0
   97.3059   -7.1269   20.0101 O   0  0
   97.6261   -4.7325   19.0296 O   0  0
   97.2552   -5.1791   21.7470 O   0  0
   97.1139   -2.6799   20.8820 O   0  0
   94.9227   -3.6585   21.9305 O   0  0
   95.0341   -4.0771   24.9100 O   0  0
   97.1415   -5.6135   24.7270 O   0  0
   97.0761   -3.4294   26.4060 O   0  0
   93.5287   -3.1808   19.1791 O   0  0
   93.1882   -2.1869   16.8003 O   0  0
   89.3304   -8.1030   13.5280 N   0  0
   89.8687   -7.9514   15.8799 N   0  0
   91.5128   -6.4669   16.7409 N   0  0
   91.4860   -5.9544   13.2757 N   0  0
   92.6004   -5.1178   15.0552 N   0  0
   90.2084   -7.9943   18.5991 S   0  0
   95.0177   -9.1983   19.7507 F   0  0
   93.5048  -10.8612   19.8675 F   0  0
   94.2045  -10.1025   17.8564 F   0  0
   96.8407   -5.6975   20.1800 P   0  0
   96.6146   -3.6151   21.9613 P   0  0
   96.5463   -4.0428   24.9217 P   0  0
   98.9358   -2.9301   23.6257 Cl  0  0
   96.5297   -1.3240   23.8014 Cl  0  0
  1 18  1  0
  2 18  1  0
  2  3  1  0
  3 31  1  0
  5 32  1  0
  5 36  1  0
  6 36  1  0
  6  7  1  0
  7  8  1  0
  8 37  1  0
  8 38  1  0
  8 39  1  0
  9 33  1  0
 10 34  1  0
 10  4  1  0
 11 35  1  0
 12 35  1  0
 12 19  1  0
 13 19  1  0
 13 14  1  0
 13 16  1  0
 14 20  1  0
 15 43  1  0
 15 44  1  0
 15 42  1  0
 16 29  1  0
 16 17  1  0
 17 30  1  0
 17 12  1  0
 31  4  1  0
 35  9  1  0
 40 20  1  0
 40 22  1  0
 40 23  1  0
 41 23  1  0
 41 25  1  0
 41 15  1  0
 42 27  1  0
 42 28  1  0
  4 32  2  0
  5 33  2  0
  9 10  2  0
 11 34  2  0
 40 21  2  0
 41 24  2  0
 42 26  2  0
M  END
> <Name>
CHEMBL1160363 PubChem-10533573

> <rmsd>
0.550384939

$$$$
CHEMBL104664
  SciTegic06052412183D

 46 49  0  0  0  0            999 V2000
   90.7606   -6.1835   19.1114 C   0  0
   89.8824   -6.8865   18.1121 C   0  0
   90.4186   -6.6783   16.7281 C   0  0
   91.7087   -6.7180   15.0639 C   0  0
   90.5658   -6.0668   14.7181 C   0  0
   90.3722   -5.5335   13.4475 C   0  0
   91.4104   -5.6893   12.5037 C   0  0
   91.2580   -5.1435   11.1446 C   0  0
   89.8143   -3.9265    9.4448 C   0  0
   89.6571   -5.0270    8.3903 C   0  0
   88.6627   -2.9665    9.4379 C   0  0
   92.5987   -6.3688   12.8725 C   0  0
   92.7595   -6.8933   14.1687 C   0  0
   91.5824   -4.6385   20.3085 C   0  0
   92.3811   -5.7366   20.4265 C   0  0
   92.4374   -8.0514   19.4807 C   0  0
   93.5224   -5.7446   21.2257 C   0  0
   93.8385   -4.5615   21.9267 C   0  0
   95.0282   -4.5119   22.7925 C   0  0
   96.5420   -3.1123   24.3299 C   0  0
   97.8441   -3.5702   23.6810 C   0  0
   96.3308   -3.8006   25.6467 C   0  0
   93.0066   -3.4218   21.7946 C   0  0
   91.8617   -3.4504   20.9770 C   0  0
   91.6452   -7.1207   16.3409 N   0  0
   89.7233   -6.0240   15.7590 N   0  0
   90.0477   -4.4748   10.7769 N   0  0
   90.5543   -4.8884   19.4757 N   0  0
   91.8776   -6.7214   19.6716 N   0  0
   95.3999   -3.2800   23.4275 N   0  0
   92.1882   -5.2733   10.3027 O   0  0
   86.9738   -5.4622    8.7611 O   0  0
   88.5417   -6.9576   10.2278 O   0  0
   88.2577   -7.3658    7.5187 O   0  0
   87.8287   -2.9504   10.3836 O   0  0
   88.5029   -2.0946    8.3690 O   0  0
   95.7177   -5.5526   22.9747 O   0  0
   98.5444   -1.0311   22.9607 O   0  0
   99.8421   -2.9422   21.7319 O   0  0
   97.2086   -2.3664   21.1481 O   0  0
   95.3260   -4.5326   25.8448 O   0  0
   97.2513   -3.6157   26.6693 O   0  0
   88.2959   -6.1952    8.7381 P   0  0
   98.3693   -2.4153   22.3771 P   0  0
   88.5975   -6.3766   18.1983 F   0  0
   89.8271   -8.2417   18.3846 F   0  0
  2  1  1  0
  2  3  1  0
  2 45  1  0
  2 46  1  0
  3 25  1  0
  5 26  1  0
  5  6  1  0
  7  8  1  0
  7 12  1  0
  8 27  1  0
  9 27  1  0
  9 10  1  0
  9 11  1  0
 10 43  1  0
 11 36  1  0
 13  4  1  0
 14 28  1  0
 15 29  1  0
 15 17  1  0
 16 29  1  0
 18 19  1  0
 18 23  1  0
 19 30  1  0
 20 30  1  0
 20 21  1  0
 20 22  1  0
 21 44  1  0
 22 42  1  0
 24 14  1  0
 25  4  1  0
 29  1  1  0
 43 33  1  0
 43 34  1  0
 44 39  1  0
 44 40  1  0
  1 28  2  0
  3 26  2  0
  4  5  2  0
  6  7  2  0
  8 31  2  0
 11 35  2  0
 12 13  2  0
 14 15  2  0
 17 18  2  0
 19 37  2  0
 22 41  2  0
 23 24  2  0
 43 32  2  0
 44 38  2  0
M  END
> <Name>
CHEMBL104664

> <rmsd>
0.610539317

$$$$
CHEMBL2057250 PubChem-70684200
  SciTegic06052412183D

 92103  0  0  0  0            999 V2000
  101.8096   -5.1621   32.7968 P   0  0
   98.5337   -3.5341   26.2678 P   0  0
   93.3515   -7.0740   20.9086 P   0  0
   94.4816   -9.5490   15.9202 P   0  0
  102.3388   -3.7752   33.0904 O   0  0
  101.4006   -5.9312   34.2465 O   0  0
  103.0011   -6.0638   32.0020 O   0  0
   99.2968   -4.4367   32.4309 O   0  0
   96.9394   -5.1758   29.4509 O   0  0
   97.2767   -3.5687   27.4141 O   0  0
   97.9702   -3.0829   24.9395 O   0  0
   98.2010   -6.1470   25.9621 O   0  0
   96.5008   -8.5515   22.6116 O   0  0
   94.1752   -7.4380   22.3484 O   0  0
   92.5111   -5.8282   21.1131 O   0  0
   94.4619   -6.8969   19.6267 O   0  0
   96.0989   -6.2916   17.1473 O   0  0
   94.4964   -8.3453   17.1168 O   0  0
   95.2163  -10.7612   16.4438 O   0  0
   94.4641   -8.1220   13.6959 O   0  0
   92.0591  -11.3439   11.4955 O   0  0
   91.2426  -10.1679    9.3248 O   0  0
   91.9688   -8.2365   12.1844 O   0  0
   92.8844   -9.9849   15.5687 O   0  0
   92.6682   -5.5919   17.7900 O   0  0
   92.3217   -8.3632   20.5401 O   0  0
   95.7175   -5.8827   24.6784 O   0  0
   99.7749   -2.4695   26.7244 O   0  0
   97.0960   -2.2266   30.6787 O   0  0
  100.3428   -5.0450   31.7321 C   0  0
   98.9852   -3.2879   31.6961 C   0  0
   97.6771   -3.4841   30.9431 C   0  0
   97.9377   -4.2156   29.6405 C   0  0
   97.8319   -3.1212   28.6174 C   0  0
   99.2277   -5.2074   26.0787 C   0  0
   98.0577   -6.3668   24.5907 C   0  0
   96.6526   -6.8653   24.3001 C   0  0
   96.5151   -7.1708   22.8284 C   0  0
   95.2252   -6.5153   22.4183 C   0  0
   94.5372   -5.5314   19.3204 C   0  0
   94.0283   -5.2545   17.8989 C   0  0
   94.7783   -5.9840   16.7971 C   0  0
   93.9340   -7.2062   16.5321 C   0  0
   95.3084   -8.9820   14.4012 C   0  0
   94.3017   -8.7313   12.4507 C   0  0
   92.8937   -9.2919   12.3303 C   0  0
   92.8158  -10.2226   11.1413 C   0  0
   92.1022   -9.3968   10.1129 C   0  0
   91.3167   -8.4193   10.9486 C   0  0
   92.1668   -6.2373    9.9915 C   0  0
   90.3673   -5.3707    9.2706 C   0  0
   89.3557   -4.5837    8.7414 C   0  0
   87.8094   -6.3093    9.3084 C   0  0
   90.0727   -6.5795    9.7932 C   0  0
   92.6172   -6.8804   17.2179 C   0  0
   90.4001   -7.7452   16.4253 C   0  0
   90.1087   -6.6613   14.6222 C   0  0
   89.6663   -6.0835   13.4423 C   0  0
   91.6865   -4.8170   13.3878 C   0  0
   91.2992   -6.2989   15.1444 C   0  0
   94.9599   -5.5390   23.5416 C   0  0
   94.6342   -3.0548   23.6851 C   0  0
   96.0728   -2.3090   22.3137 C   0  0
   96.9353   -1.5657   21.5206 C   0  0
   97.8862   -3.6115   20.7530 C   0  0
   96.1419   -3.6584   22.3012 C   0  0
   96.9185   -2.1283   29.2854 C   0  0
   96.9245   -0.2983   27.5605 C   0  0
   97.7229    1.3493   28.6318 C   0  0
   98.1884    2.5726   29.0923 C   0  0
   98.5714    1.5523   31.2130 C   0  0
   97.6907    0.2851   29.4613 C   0  0
   91.1898   -7.1439   10.2575 N   0  0
   91.6867   -5.1196    9.3767 N   0  0
   89.6244   -3.2961    8.1996 N   0  0
   88.0819   -5.0756    8.7723 N   0  0
   88.8130   -7.0778    9.8271 N   0  0
   91.5047   -6.9701   16.2829 N   0  0
   89.5106   -7.5780   15.4055 N   0  0
   88.4060   -6.4236   12.8768 N   0  0
   90.4760   -5.1627   12.8416 N   0  0
   92.1093   -5.3854   14.5571 N   0  0
   95.2335   -4.1547   23.1560 N   0  0
   95.1293   -1.8899   23.1769 N   0  0
   96.8963   -0.1433   21.5082 N   0  0
   97.8345   -2.2419   20.7479 N   0  0
   97.0351   -4.3363   21.5392 N   0  0
   97.1911   -0.7726   28.8058 N   0  0
   97.2464    1.0190   27.4181 N   0  0
   98.2261    3.7189   28.2498 N   0  0
   98.6098    2.6490   30.3891 N   0  0
   98.1062    0.3508   30.7506 N   0  0
  1  6  1  0
  1  7  1  0
  1 30  1  0
  2 10  1  0
  2 35  1  0
  2 28  1  0
  3 14  1  0
  3 16  1  0
  3 26  1  0
  4 18  1  0
  4 44  1  0
  4 24  1  0
 30  8  1  0
 31  8  1  0
 32 31  1  0
 32 33  1  0
 32 29  1  0
 33  9  1  0
 33 34  1  0
 34 10  1  0
 34 67  1  0
 35 12  1  0
 36 12  1  0
 37 36  1  0
 37 38  1  0
 37 27  1  0
 38 13  1  0
 38 39  1  0
 39 14  1  0
 39 61  1  0
 40 16  1  0
 41 40  1  0
 41 42  1  0
 41 25  1  0
 42 17  1  0
 42 43  1  0
 43 18  1  0
 43 55  1  0
 44 20  1  0
 45 20  1  0
 46 45  1  0
 46 47  1  0
 46 23  1  0
 47 21  1  0
 47 48  1  0
 48 22  1  0
 48 49  1  0
 49 23  1  0
 49 73  1  0
 51 74  1  0
 52 75  1  0
 52 76  1  0
 53 77  1  0
 54 73  1  0
 54 51  1  0
 55 25  1  0
 55 78  1  0
 57 79  1  0
 58 80  1  0
 58 81  1  0
 59 82  1  0
 60 78  1  0
 60 57  1  0
 61 27  1  0
 61 83  1  0
 63 84  1  0
 64 85  1  0
 64 86  1  0
 65 87  1  0
 66 83  1  0
 66 63  1  0
 67 29  1  0
 67 88  1  0
 69 89  1  0
 70 90  1  0
 70 91  1  0
 71 92  1  0
 72 88  1  0
 72 69  1  0
 73 50  1  0
 78 56  1  0
 83 62  1  0
 88 68  1  0
  1  5  2  0
  2 11  2  0
  3 15  2  0
  4 19  2  0
 50 74  2  0
 51 52  2  0
 53 76  2  0
 54 77  2  0
 56 79  2  0
 57 58  2  0
 59 81  2  0
 60 82  2  0
 62 84  2  0
 63 64  2  0
 65 86  2  0
 66 87  2  0
 68 89  2  0
 69 70  2  0
 71 91  2  0
 72 92  2  0
M  END
> <Name>
CHEMBL2057250 PubChem-70684200

> <rmsd>
0.598408163

$$$$
CHEMBL374267 PubChem-44413910
  SciTegic06052412183D

 93104  0  0  0  0            999 V2000
   98.8916   -5.2371   34.1354 N   0  0
   98.2350   -5.8346   31.9278 N   0  0
   99.4854   -2.9556   34.7183 N   0  0
   98.8930   -2.3946   31.8460 N   0  0
   98.2458   -3.9877   30.3614 N   0  0
   95.5021   -3.8594   21.3192 N   0  0
   97.1099   -2.3264   20.3651 N   0  0
   98.6460   -3.3533   18.8606 N   0  0
   96.2493   -5.7197   20.2603 N   0  0
   98.5545   -5.7253   18.3653 N   0  0
   92.0259   -4.9751   15.1314 N   0  0
   90.5746   -5.9218   16.8144 N   0  0
   89.6785   -8.0522   16.2422 N   0  0
   91.8657   -6.6803   13.6547 N   0  0
   90.2005   -9.1223   14.1351 N   0  0
   87.3120   -6.0623   11.2605 N   0  0
   85.3461   -5.9832    9.8627 N   0  0
   85.7490   -6.6013    7.5989 N   0  0
   88.7622   -6.7510    9.6654 N   0  0
   87.9577   -7.2449    6.8223 N   0  0
   98.4737   -6.1784   33.2291 C   0  0
   98.4243   -4.5419   31.5688 C   0  0
   98.8217   -3.5946   32.4467 C   0  0
   99.0671   -3.9323   33.7687 C   0  0
   98.5204   -2.6714   30.5644 C   0  0
   97.7013   -4.5916   29.1422 C   0  0
   98.3285   -3.9534   27.9084 C   0  0
   95.1910   -2.2697   25.6417 C   0  0
   94.5563   -2.2561   24.2579 C   0  0
   93.4045   -3.2410   24.1219 C   0  0
   93.4447   -3.5974   22.6682 C   0  0
   94.7293   -2.9555   22.1666 C   0  0
   96.5447   -3.5441   20.5441 C   0  0
   98.1728   -2.2384   19.5077 C   0  0
   98.0643   -4.5744   19.0455 C   0  0
   96.9848   -4.6511   19.9105 C   0  0
   95.3387   -5.1963   21.1283 C   0  0
   92.6402   -3.1608   19.2652 C   0  0
   92.6784   -2.8182   17.7757 C   0  0
   91.4150   -2.1563   17.2284 C   0  0
   91.2439   -2.7824   15.8774 C   0  0
   92.4343   -3.7129   15.7367 C   0  0
   91.2115   -5.9164   15.6215 C   0  0
   89.7998   -7.0073   17.1234 C   0  0
   90.3255   -8.0347   15.0406 C   0  0
   91.1127   -6.9304   14.7411 C   0  0
   92.4220   -5.4648   13.9312 C   0  0
   88.5894   -3.8508   14.9807 C   0  0
   87.3880   -4.5577   14.3902 C   0  0
   87.4198   -6.0095   14.7957 C   0  0
   86.9219   -6.7361   13.5697 C   0  0
   86.7609   -5.6380   12.5389 C   0  0
   86.6614   -6.2006   10.1041 C   0  0
   84.8907   -6.1874    8.5891 C   0  0
   87.0750   -6.8178    7.8549 C   0  0
   87.5256   -6.6083    9.1505 C   0  0
   88.5960   -6.4012   10.9724 C   0  0
   99.1829   -5.0370   27.3396 C   0  0
   98.5089   -6.2816   27.8803 C   0  0
   99.4400   -7.4798   27.9799 C   0  0
   97.3301   -3.6266   26.9862 O   0  0
   96.6231   -1.4460   28.2826 O   0  0
   96.2836   -1.4011   25.6797 O   0  0
   95.5003   -2.5539   23.2680 O   0  0
   92.3478   -3.0332   22.0069 O   0  0
   92.0417   -5.6643   21.6515 O   0  0
   91.7358   -4.1985   19.5059 O   0  0
   92.9870   -3.9518   17.0075 O   0  0
   91.2711   -1.7988   14.8848 O   0  0
   89.7229   -0.9039   12.9929 O   0  0
   88.5413   -2.4861   14.6912 O   0  0
   87.4234   -4.4845   12.9879 O   0  0
   85.6832   -7.3539   13.7932 O   0  0
   87.0913   -9.5830   14.0180 O   0  0
   84.4981   -9.8467   13.7857 O   0  0
   86.0711   -9.0794   11.6498 O   0  0
   86.5948   -6.2160   15.9018 O   0  0
   90.3793   -3.4098   12.7968 O   0  0
   90.2831   -2.4389   18.0007 O   0  0
   89.8953   -4.1910   21.5520 O   0  0
   93.6390   -4.4013   24.8671 O   0  0
   98.7886   -1.2703   26.8202 O   0  0
  100.4767   -4.9002   27.8505 O   0  0
   97.9448   -5.9823   29.1295 O   0  0
   98.6953   -8.6428   28.1912 O   0  0
   99.0941  -11.2238   28.1843 O   0  0
  100.8279   -9.8097   26.8400 O   0  0
  100.7694   -9.8082   29.6065 O   0  0
   97.2357   -1.9266   26.9823 P   0  0
   91.5477   -4.3044   21.1955 P   0  0
   89.9706   -2.1344   13.8346 P   0  0
   85.8810   -8.9796   13.3330 P   0  0
   99.8280   -9.9037   28.2041 P   0  0
  5 22  1  0
  6 33  1  0
 11 43  1  0
 16 53  1  0
 21  2  1  0
 22 23  1  0
 23  4  1  0
 24  3  1  0
 24  1  1  0
 25  5  1  0
 26  5  1  0
 26 27  1  0
 26 84  1  0
 27 61  1  0
 27 58  1  0
 28 63  1  0
 29 28  1  0
 29 30  1  0
 29 64  1  0
 30 31  1  0
 30 81  1  0
 31 32  1  0
 31 65  1  0
 32  6  1  0
 32 64  1  0
 34  7  1  0
 35  8  1  0
 35 10  1  0
 36  9  1  0
 36 33  1  0
 37  6  1  0
 38 67  1  0
 39 38  1  0
 39 40  1  0
 39 68  1  0
 40 41  1  0
 40 79  1  0
 41 42  1  0
 41 69  1  0
 42 11  1  0
 42 68  1  0
 44 12  1  0
 45 13  1  0
 45 15  1  0
 46 14  1  0
 46 43  1  0
 47 11  1  0
 48 71  1  0
 49 48  1  0
 49 50  1  0
 49 72  1  0
 50 51  1  0
 50 77  1  0
 51 52  1  0
 51 73  1  0
 52 16  1  0
 52 72  1  0
 54 17  1  0
 55 18  1  0
 55 20  1  0
 56 19  1  0
 56 53  1  0
 57 16  1  0
 58 83  1  0
 58 59  1  0
 59 84  1  0
 59 60  1  0
 60 85  1  0
 89 61  1  0
 89 63  1  0
 89 82  1  0
 90 65  1  0
 90 67  1  0
 90 80  1  0
 91 69  1  0
 91 71  1  0
 91 78  1  0
 92 73  1  0
 92 75  1  0
 92 76  1  0
 93 85  1  0
 93 87  1  0
 93 88  1  0
 21  1  2  0
 22  2  2  0
 23 24  2  0
 25  4  2  0
 33  7  2  0
 34  8  2  0
 35 36  2  0
 37  9  2  0
 43 12  2  0
 44 13  2  0
 45 46  2  0
 47 14  2  0
 53 17  2  0
 54 18  2  0
 55 56  2  0
 57 19  2  0
 89 62  2  0
 90 66  2  0
 91 70  2  0
 92 74  2  0
 93 86  2  0
M  END
> <Name>
CHEMBL374267 PubChem-44413910

> <rmsd>
0.606700659

$$$$
CHEMBL2058186 PubChem-11528283
  SciTegic06052412183D

 90101  0  0  0  0            999 V2000
   94.5493   -2.2948   23.9816 C   0  0
   95.6652   -2.7324   24.9024 C   0  0
   95.2473   -2.5931   26.3397 C   0  0
   96.5536   -2.3216   27.0509 C   0  0
   97.5082   -1.9715   25.9183 C   0  0
   99.4862   -0.4660   26.2920 C   0  0
   98.5627    1.4242   26.5956 C   0  0
   98.2209    2.7450   26.8480 C   0  0
   95.9282    2.1395   26.5884 C   0  0
   97.5937    0.5166   26.3546 C   0  0
   94.2632   -3.7502   19.9210 C   0  0
   93.7623   -3.8608   18.5008 C   0  0
   94.5715   -5.0023   17.9427 C   0  0
   94.7922   -4.8056   16.4524 C   0  0
   95.6857   -8.0551   14.2140 C   0  0
   93.9388   -7.9169   12.8668 C   0  0
   93.9451   -8.9934   11.8204 C   0  0
   93.1867   -8.3499   10.6734 C   0  0
   92.4129   -9.3463    9.8247 C   0  0
   89.2101   -8.4955    8.5791 C   0  0
   87.9610   -7.9339    7.9604 C   0  0
   87.6606   -6.6988    8.7883 C   0  0
   88.0141   -5.3822    8.0977 C   0  0
   89.2023   -7.8957    9.9689 C   0  0
   89.6589   -9.4970   11.8467 C   0  0
   87.7383  -10.3315   12.2191 C   0  0
   86.6160  -10.9960   12.6931 C   0  0
   85.3280   -9.8236   11.0585 C   0  0
   87.6257   -9.4496   11.2034 C   0  0
   93.0418   -6.8380   12.2897 C   0  0
   91.8524   -5.0331   13.5677 C   0  0
   90.6273   -6.1426   14.8956 C   0  0
   89.7603   -6.6109   15.8732 C   0  0
   90.3944   -8.8306   15.2722 C   0  0
   91.3289   -7.0147   14.1420 C   0  0
   95.5534   -4.5489   19.9019 C   0  0
   97.1286   -2.5633   19.8959 C   0  0
   98.3118   -2.9702   21.6131 C   0  0
   99.1928   -2.9737   22.6826 C   0  0
   98.2205   -5.0373   23.3859 C   0  0
   97.4203   -3.9734   21.4685 C   0  0
   94.6445   -3.7776   26.7744 O   0  0
   97.0279   -3.4556   27.7158 O   0  0
   96.8020   -1.9364   24.6979 O   0  0
   94.7631   -2.8474   22.7195 O   0  0
   92.3712   -3.8736   23.1847 O   0  0
   92.4644   -1.8318   21.5472 O   0  0
   93.3845   -4.3438   20.8320 O   0  0
   94.4541   -5.9679   15.7491 O   0  0
   97.0670   -5.9600   15.2580 O   0  0
   96.1919   -7.7302   16.9915 O   0  0
   95.2256   -7.4134   13.0589 O   0  0
   92.7802   -9.2148    8.4846 O   0  0
   91.6515   -9.4979    6.1453 O   0  0
   90.5766  -10.8484    8.1063 O   0  0
   90.3466   -8.0461    7.8945 O   0  0
   89.3966   -5.2277    8.0251 O   0  0
   89.1665   -3.0972    9.5274 O   0  0
   88.8579   -2.7296    6.9527 O   0  0
   91.3198   -3.2485    8.0596 O   0  0
   88.3204   -6.7956   10.0315 O   0  0
   88.0979   -7.6761    6.5893 O   0  0
   92.3335   -7.3724   11.2005 O   0  0
   93.2527  -10.0981   12.3266 O   0  0
   95.8099   -5.0034   18.5971 O   0  0
   92.3983   -4.1469   18.4376 O   0  0
   98.1526   -0.6882   26.1685 N   0  0
   99.7773    0.8392   26.5617 N   0  0
   99.2188    3.7294   27.1068 N   0  0
   96.8946    3.0780   26.8414 N   0  0
   96.2752    0.8376   26.3428 N   0  0
   88.8244   -8.9030   10.9549 N   0  0
   89.0102  -10.3919   12.6476 N   0  0
   86.6967  -11.9325   13.7626 N   0  0
   85.4219  -10.7289   12.0890 N   0  0
   86.4404   -9.1640   10.6114 N   0  0
   92.1139   -6.3346   13.2961 N   0  0
   90.9310   -4.8763   14.5621 N   0  0
   89.0001   -5.7233   16.6821 N   0  0
   89.6604   -7.9633   16.0388 N   0  0
   91.2469   -8.3555   14.3097 N   0  0
   96.6710   -3.7468   20.3868 N   0  0
   98.1573   -2.0553   20.6332 N   0  0
  100.1348   -1.9221   22.8722 N   0  0
   99.1309   -4.0213   23.5567 N   0  0
   97.3459   -5.0177   22.3326 N   0  0
   93.2232   -3.2345   22.1082 P   0  0
   95.8890   -6.8644   15.5674 P   0  0
   91.3328   -9.4075    7.6236 P   0  0
   89.6616   -3.5626    8.1796 P   0  0
  1 45  1  0
  2  1  1  0
  2  3  1  0
  2 44  1  0
  3 42  1  0
  3  4  1  0
  4 43  1  0
  4  5  1  0
  5 44  1  0
  5 67  1  0
  7 68  1  0
  8 69  1  0
  8 70  1  0
  9 71  1  0
 10 67  1  0
 10  7  1  0
 11 48  1  0
 11 12  1  0
 12 13  1  0
 12 66  1  0
 13 14  1  0
 13 65  1  0
 14 49  1  0
 15 52  1  0
 16 52  1  0
 16 17  1  0
 17 18  1  0
 17 64  1  0
 18 19  1  0
 18 63  1  0
 19 53  1  0
 20 56  1  0
 20 21  1  0
 21 22  1  0
 21 62  1  0
 22 23  1  0
 22 61  1  0
 23 57  1  0
 24 61  1  0
 24 72  1  0
 24 20  1  0
 26 73  1  0
 27 74  1  0
 27 75  1  0
 28 76  1  0
 29 72  1  0
 29 26  1  0
 30 63  1  0
 30 77  1  0
 30 16  1  0
 32 78  1  0
 33 79  1  0
 33 80  1  0
 34 81  1  0
 35 77  1  0
 35 32  1  0
 36 65  1  0
 36 82  1  0
 36 11  1  0
 38 83  1  0
 39 84  1  0
 39 85  1  0
 40 86  1  0
 41 82  1  0
 41 38  1  0
 67  6  1  0
 72 25  1  0
 77 31  1  0
 82 37  1  0
 87 45  1  0
 87 47  1  0
 87 48  1  0
 88 49  1  0
 88 51  1  0
 88 15  1  0
 89 53  1  0
 89 55  1  0
 89 56  1  0
 90 57  1  0
 90 59  1  0
 90 60  1  0
  6 68  2  0
  7  8  2  0
  9 70  2  0
 10 71  2  0
 25 73  2  0
 26 27  2  0
 28 75  2  0
 29 76  2  0
 31 78  2  0
 32 33  2  0
 34 80  2  0
 35 81  2  0
 37 83  2  0
 38 39  2  0
 40 85  2  0
 41 86  2  0
 87 46  2  0
 88 50  2  0
 89 54  2  0
 90 58  2  0
M  END
> <Name>
CHEMBL2058186 PubChem-11528283

> <rmsd>
0.662603974

$$$$
CHEMBL2059734 PubChem-11715128
  SciTegic06052412183D

 91102  0  0  0  0            999 V2000
   99.0674   -2.9034   24.4108 C   0  0
   99.1614   -3.8391   25.6119 C   0  0
   98.2664   -3.4034   26.7419 C   0  0
   98.9564   -3.9759   27.9478 C   0  0
  100.3801   -4.2080   27.4625 C   0  0
  102.7227   -3.6075   28.1099 C   0  0
  102.4641   -2.0937   29.5697 C   0  0
  102.5766   -1.1091   30.5400 C   0  0
  100.1963   -0.9926   30.6020 C   0  0
  101.2427   -2.4946   29.1532 C   0  0
   98.2041   -3.3601   21.0614 C   0  0
   96.2912   -2.4206   20.3582 C   0  0
   96.2256   -2.5733   18.8640 C   0  0
   94.8020   -2.1375   18.5690 C   0  0
   93.9194   -3.3745   18.4485 C   0  0
   90.2593   -4.4104   19.2397 C   0  0
   89.5436   -3.6357   17.2648 C   0  0
   88.9586   -2.4562   16.5288 C   0  0
   87.7408   -3.0327   15.8505 C   0  0
   87.4744   -2.3277   14.5258 C   0  0
   87.7568   -5.6908   11.4893 C   0  0
   87.8098   -7.0535   12.1319 C   0  0
   88.6576   -7.8496   11.1762 C   0  0
   88.2558   -9.3191   11.1908 C   0  0
   88.1708   -5.9546   10.0509 C   0  0
   87.1345   -4.6619    8.1618 C   0  0
   85.1855   -5.5062    8.0496 C   0  0
   83.8842   -5.8868    7.7562 C   0  0
   84.0267   -7.4776    9.5310 C   0  0
   85.8553   -6.1106    9.0556 C   0  0
   88.8023   -4.8304   16.6785 C   0  0
   89.8903   -7.0940   16.5916 C   0  0
   91.4191   -6.8045   15.1433 C   0  0
   92.5025   -6.8735   14.2795 C   0  0
   92.1145   -4.5770   13.7348 C   0  0
   90.7281   -5.6535   15.2694 C   0  0
   95.3510   -1.2692   20.5918 C   0  0
   94.0202   -2.2910   22.4867 C   0  0
   94.2210   -0.8002   23.9834 C   0  0
   94.1926    0.0024   25.1146 C   0  0
   95.5383    1.5914   23.9406 C   0  0
   94.8967   -0.3913   22.8877 C   0  0
   96.9796   -3.9169   26.5778 O   0  0
   98.3997   -5.1998   28.3220 O   0  0
  100.4767   -3.8781   26.0961 O   0  0
   97.7684   -2.9002   23.8881 O   0  0
   96.2983   -4.5972   22.5513 O   0  0
   98.7404   -5.3845   23.0141 O   0  0
   97.5768   -2.1253   20.8374 O   0  0
   92.5796   -3.0200   18.2742 O   0  0
   91.4031   -2.2841   20.5011 O   0  0
   92.7302   -4.5351   20.6422 O   0  0
   89.3274   -3.5467   18.6488 O   0  0
   88.5306   -2.5428   13.6310 O   0  0
   88.1080   -2.4790   11.0600 O   0  0
   86.1890   -3.5707   12.4547 O   0  0
   88.6736   -4.8127   12.0825 O   0  0
   86.9302   -9.4691   10.7736 O   0  0
   86.5844  -11.1424   12.7785 O   0  0
   84.8534  -11.2760   10.8297 O   0  0
   87.4365  -12.1781   10.5292 O   0  0
   88.5064   -7.3132    9.8838 O   0  0
   88.3949   -7.0264   13.4031 O   0  0
   87.9601   -4.4045   15.6354 O   0  0
   88.5854   -1.4213   17.3903 O   0  0
   94.3324   -1.3171   19.6214 O   0  0
   97.1134   -1.6947   18.2349 O   0  0
  101.3801   -3.4576   28.2277 N   0  0
  103.4280   -2.7786   28.9309 N   0  0
  103.8477   -0.6724   31.0082 N   0  0
  101.4248   -0.5680   31.0387 N   0  0
  100.0978   -1.9673   29.6484 N   0  0
   87.0887   -5.5978    9.1415 N   0  0
   85.9653   -4.5756    7.4655 N   0  0
   83.1544   -5.2823    6.6943 N   0  0
   83.3265   -6.8766    8.5142 N   0  0
   85.3083   -7.0926    9.8135 N   0  0
   89.7605   -5.8095   16.1805 N   0  0
   90.9165   -7.7426   15.9667 N   0  0
   93.2614   -8.0704   14.1346 N   0  0
   92.8308   -5.7431   13.5824 N   0  0
   91.0523   -4.5216   14.5924 N   0  0
   94.7847   -1.3158   21.9322 N   0  0
   93.6480   -1.9987   23.7647 N   0  0
   93.4934   -0.3949   26.2884 N   0  0
   94.8557    1.1986   25.0659 N   0  0
   95.5625    0.7898   22.8296 N   0  0
   97.7158   -4.0813   22.6641 P   0  0
   91.7731   -3.5071   19.6934 P   0  0
   87.8646   -3.3326   12.2803 P   0  0
   86.4615  -11.0166   11.2749 P   0  0
  1 46  1  0
  2  1  1  0
  2  3  1  0
  2 45  1  0
  3 43  1  0
  3  4  1  0
  4 44  1  0
  4  5  1  0
  5 45  1  0
  5 68  1  0
  7 69  1  0
  8 70  1  0
  8 71  1  0
  9 72  1  0
 10 68  1  0
 10  7  1  0
 11 49  1  0
 12 49  1  0
 12 13  1  0
 13 14  1  0
 13 67  1  0
 14 15  1  0
 14 66  1  0
 15 50  1  0
 16 53  1  0
 17 53  1  0
 17 18  1  0
 18 19  1  0
 18 65  1  0
 19 20  1  0
 19 64  1  0
 20 54  1  0
 21 57  1  0
 21 22  1  0
 22 23  1  0
 22 63  1  0
 23 24  1  0
 23 62  1  0
 24 58  1  0
 25 62  1  0
 25 73  1  0
 25 21  1  0
 27 74  1  0
 28 75  1  0
 28 76  1  0
 29 77  1  0
 30 73  1  0
 30 27  1  0
 31 64  1  0
 31 78  1  0
 31 17  1  0
 33 79  1  0
 34 80  1  0
 34 81  1  0
 35 82  1  0
 36 78  1  0
 36 33  1  0
 37 66  1  0
 37 83  1  0
 37 12  1  0
 39 84  1  0
 40 85  1  0
 40 86  1  0
 41 87  1  0
 42 83  1  0
 42 39  1  0
 68  6  1  0
 73 26  1  0
 78 32  1  0
 83 38  1  0
 88 46  1  0
 88 48  1  0
 88 11  1  0
 89 50  1  0
 89 52  1  0
 89 16  1  0
 90 54  1  0
 90 56  1  0
 90 57  1  0
 91 58  1  0
 91 60  1  0
 91 61  1  0
  6 69  2  0
  7  8  2  0
  9 71  2  0
 10 72  2  0
 26 74  2  0
 27 28  2  0
 29 76  2  0
 30 77  2  0
 32 79  2  0
 33 34  2  0
 35 81  2  0
 36 82  2  0
 38 84  2  0
 39 40  2  0
 41 86  2  0
 42 87  2  0
 88 47  2  0
 89 51  2  0
 90 55  2  0
 91 59  2  0
M  END
> <Name>
CHEMBL2059734 PubChem-11715128

> <rmsd>
0.496574223

$$$$
CHEMBL3350518 PubChem-118718976
  SciTegic06052412183D

 48 50  0  0  0  0            999 V2000
   90.0449   -7.9571   14.3072 N   0  0
   90.3650   -6.6063   16.1022 N   0  0
   93.0799   -5.3278   14.0215 N   0  0
   91.8701   -7.0861   12.9756 N   0  0
   92.4939   -4.5157   16.2460 N   0  0
   95.5408   -2.1814   21.4472 N   0  0
   95.8435   -4.5648   25.5603 N   0  0
   89.5756   -9.0863   13.4975 C   0  0
   88.0798   -9.2740   13.6376 C   0  0
   87.5487   -8.5004   12.4665 C   0  0
   88.6947   -8.5022   11.4809 C   0  0
   88.8674   -7.1238   10.8689 C   0  0
   91.0715   -7.1297   14.0708 C   0  0
   91.2517   -6.3165   15.1339 C   0  0
   89.6445   -7.6324   15.5662 C   0  0
   92.2787   -5.3822   15.1287 C   0  0
   92.8825   -6.1687   12.9559 C   0  0
   93.5933   -3.5617   16.2983 C   0  0
   94.9151   -4.2836   16.5224 C   0  0
   95.0182   -4.8058   17.9488 C   0  0
   95.6577   -3.7720   18.8622 C   0  0
   94.6637   -2.6833   19.2319 C   0  0
   95.3292   -1.6426   20.1138 C   0  0
   96.8461   -2.3209   22.0095 C   0  0
   97.0035   -2.8756   23.3802 C   0  0
   96.8460   -4.3854   23.3481 C   0  0
   96.9842   -4.9595   24.7462 C   0  0
   95.9971   -3.7796   26.7429 C   0  0
   94.7913   -3.3073   27.4732 C   0  0
   89.8812   -8.8809   12.1371 O   0  0
   87.8207   -6.8572    9.9831 O   0  0
   89.3041   -5.0860    8.7531 O   0  0
   89.6771   -7.5686    8.0218 O   0  0
   87.7620   -9.3297    8.5043 O   0  0
   89.9070  -10.1857    7.2258 O   0  0
   88.2450  -12.0861    7.9923 O   0  0
   90.1291  -12.7805    6.3321 O   0  0
   87.9800  -11.2822    5.5116 O   0  0
   88.0321   -8.5354    6.0150 O   0  0
   87.3735   -6.1294    7.3564 O   0  0
   86.4196   -9.1054   11.9068 O   0  0
   87.7835  -10.6351   13.5169 O   0  0
   97.8685   -2.0040   21.3456 O   0  0
   97.1428   -3.4477   27.1502 O   0  0
   88.5638   -6.3858    8.5325 P   0  0
   88.7954   -8.9201    7.4767 P   0  0
   89.0312  -11.5837    6.8035 P   0  0
   94.0359   -1.5417   26.5407 I   0  0
  1 13  1  0
  6 24  1  0
  7 28  1  0
  8  1  1  0
  8  9  1  0
  8 30  1  0
  9 10  1  0
  9 42  1  0
 10 11  1  0
 10 41  1  0
 11 30  1  0
 11 12  1  0
 12 31  1  0
 13  4  1  0
 14  2  1  0
 14 16  1  0
 15  1  1  0
 16  5  1  0
 17  3  1  0
 18  5  1  0
 18 19  1  0
 19 20  1  0
 20 21  1  0
 21 22  1  0
 22 23  1  0
 23  6  1  0
 25 24  1  0
 25 26  1  0
 26 27  1  0
 27  7  1  0
 29 28  1  0
 29 48  1  0
 45 31  1  0
 45 33  1  0
 45 40  1  0
 46 33  1  0
 46 35  1  0
 46 39  1  0
 47 35  1  0
 47 37  1  0
 47 38  1  0
 13 14  2  0
 15  2  2  0
 16  3  2  0
 17  4  2  0
 24 43  2  0
 28 44  2  0
 45 32  2  0
 46 34  2  0
 47 36  2  0
M  END
> <Name>
CHEMBL3350518 PubChem-118718976

> <rmsd>
0.604922414

$$$$
CHEMBL2058189 PubChem-70696771
  SciTegic06052412183D

 90101  0  0  0  0            999 V2000
   90.8928   -9.2953   13.5009 C   0  0
   90.1721   -9.1006   12.1851 C   0  0
   89.8500   -7.6407   12.0102 C   0  0
   88.5348   -7.6493   11.2780 C   0  0
   88.0362   -9.0697   11.4590 C   0  0
   86.4769   -8.7650   13.4229 C   0  0
   84.5966   -9.2120   12.5413 C   0  0
   83.2644   -9.4110   12.2109 C   0  0
   83.9555   -9.8696    9.9725 C   0  0
   85.5486   -9.3480   11.5916 C   0  0
   93.1637   -9.0777   15.5233 C   0  0
   94.6126   -8.6941   15.3624 C   0  0
   94.9273   -7.9777   16.6469 C   0  0
   95.9990   -6.9258   16.3994 C   0  0
   97.6590   -5.6384   20.0640 C   0  0
   98.5264   -5.4926   21.2673 C   0  0
   97.5249   -5.5194   22.3955 C   0  0
   98.0407   -4.7523   23.6071 C   0  0
   99.2637   -2.9058   23.5863 C   0  0
   99.3114   -3.0561   26.6166 C   0  0
   98.3842   -4.1674   27.0543 C   0  0
   98.6725   -4.3164   28.5282 C   0  0
   98.6207   -5.7838   28.9140 C   0  0
  100.1363   -2.7636   27.8538 C   0  0
  102.3605   -3.6000   26.9895 C   0  0
  103.5541   -1.8516   27.1465 C   0  0
  104.5328   -0.8701   27.1198 C   0  0
  102.9264    0.6548   28.0111 C   0  0
  102.3150   -1.5553   27.5963 C   0  0
   96.2962   -5.1271   20.5437 C   0  0
   94.8162   -3.6983   19.0907 C   0  0
   95.7569   -1.7976   19.2115 C   0  0
   96.1747   -0.4783   19.1052 C   0  0
   97.9979   -1.0135   20.5470 C   0  0
   96.4642   -2.6682   19.9634 C   0  0
   92.6822   -8.1780   16.6515 C   0  0
   90.3154   -7.3090   16.6667 C   0  0
   90.3746   -5.8498   15.1262 C   0  0
   90.1337   -4.8755   14.1666 C   0  0
   92.4124   -5.0769   13.4919 C   0  0
   91.5981   -6.4031   15.2297 C   0  0
   90.8574   -7.0031   11.2779 O   0  0
   88.6976   -7.3944    9.9113 O   0  0
   88.9689   -9.8244   12.1998 O   0  0
   91.4773  -10.5642   13.5517 O   0  0
   91.5298  -12.4799   15.3195 O   0  0
   90.2558  -10.3394   16.0616 O   0  0
   93.0275  -10.4208   15.9000 O   0  0
   96.1956   -6.1766   17.5608 O   0  0
   98.2193   -4.9827   16.3866 O   0  0
   98.7610   -7.2236   17.6249 O   0  0
   98.1833   -4.8999   18.9959 O   0  0
   97.9639   -3.3760   23.3936 O   0  0
   98.3365   -0.4082   24.1093 O   0  0
  100.7863   -0.8517   24.8728 O   0  0
   98.6073   -1.9069   26.2316 O   0  0
   98.8585   -5.9370   30.2851 O   0  0
   98.9345   -7.8837   32.0305 O   0  0
   99.1533   -8.5996   29.5270 O   0  0
   96.7561   -7.7175   30.5845 O   0  0
   99.9527   -3.8011   28.7833 O   0  0
   97.0356   -3.8468   26.8651 O   0  0
   96.3085   -4.9750   21.9441 O   0  0
   99.3899   -6.5834   21.3682 O   0  0
   93.7456   -7.3766   17.1147 O   0  0
   95.4410   -9.8051   15.2065 O   0  0
   86.7425   -9.0732   12.1262 N   0  0
   85.1479   -8.8462   13.7158 N   0  0
   82.2325   -9.2654   13.1813 N   0  0
   82.9690   -9.7355   10.9182 N   0  0
   85.2667   -9.6725   10.3044 N   0  0
  101.5471   -2.6455   27.5091 N   0  0
  103.6215   -3.1398   26.7592 N   0  0
  105.8463   -1.1387   26.6387 N   0  0
  104.1909    0.3789   27.5526 N   0  0
  101.9677   -0.3206   28.0369 N   0  0
   95.8895   -3.8756   19.9033 N   0  0
   94.7043   -2.4134   18.6430 N   0  0
   95.4619    0.4684   18.3183 N   0  0
   97.2993   -0.1099   19.7858 N   0  0
   97.5831   -2.3131   20.6376 N   0  0
   91.5869   -7.3289   16.1951 N   0  0
   89.5297   -6.4059   16.0142 N   0  0
   88.8485   -4.2912   14.0056 N   0  0
   91.1699   -4.5076   13.3567 N   0  0
   92.6353   -6.0419   14.4352 N   0  0
   91.5717  -10.9733   15.2015 P   0  0
   97.8458   -5.8024   17.6006 P   0  0
   99.2228   -1.4767   24.7080 P   0  0
   98.4397   -7.5419   30.6421 P   0  0
  1 45  1  0
  2  1  1  0
  2  3  1  0
  2 44  1  0
  3 42  1  0
  3  4  1  0
  4 43  1  0
  4  5  1  0
  5 44  1  0
  5 67  1  0
  7 68  1  0
  8 69  1  0
  8 70  1  0
  9 71  1  0
 10 67  1  0
 10  7  1  0
 11 48  1  0
 11 12  1  0
 12 13  1  0
 12 66  1  0
 13 14  1  0
 13 65  1  0
 14 49  1  0
 15 52  1  0
 15 16  1  0
 16 17  1  0
 16 64  1  0
 17 18  1  0
 17 63  1  0
 18 53  1  0
 19 53  1  0
 19 89  1  0
 20 56  1  0
 20 21  1  0
 21 22  1  0
 21 62  1  0
 22 23  1  0
 22 61  1  0
 23 57  1  0
 24 61  1  0
 24 72  1  0
 24 20  1  0
 26 73  1  0
 27 74  1  0
 27 75  1  0
 28 76  1  0
 29 72  1  0
 29 26  1  0
 30 63  1  0
 30 77  1  0
 30 15  1  0
 32 78  1  0
 33 79  1  0
 33 80  1  0
 34 81  1  0
 35 77  1  0
 35 32  1  0
 36 65  1  0
 36 82  1  0
 36 11  1  0
 38 83  1  0
 39 84  1  0
 39 85  1  0
 40 86  1  0
 41 82  1  0
 41 38  1  0
 67  6  1  0
 72 25  1  0
 77 31  1  0
 82 37  1  0
 87 45  1  0
 87 47  1  0
 87 48  1  0
 88 49  1  0
 88 51  1  0
 88 52  1  0
 89 55  1  0
 89 56  1  0
 90 57  1  0
 90 59  1  0
 90 60  1  0
  6 68  2  0
  7  8  2  0
  9 70  2  0
 10 71  2  0
 25 73  2  0
 26 27  2  0
 28 75  2  0
 29 76  2  0
 31 78  2  0
 32 33  2  0
 34 80  2  0
 35 81  2  0
 37 83  2  0
 38 39  2  0
 40 85  2  0
 41 86  2  0
 87 46  2  0
 88 50  2  0
 89 54  2  0
 90 58  2  0
M  END
> <Name>
CHEMBL2058189 PubChem-70696771

> <rmsd>
0.543100476

$$$$
CHEMBL3582364 PubChem-137090991
  SciTegic06052412183D

 52 55  0  0  0  0            999 V2000
   93.3753   -9.2618   22.4945 C   0  0
   93.8352   -7.9256   21.9303 C   0  0
   95.2677   -7.8354   21.9536 C   0  0
   95.6713   -6.3681   23.9563 C   0  0
   96.0785   -5.0676   24.5589 C   0  0
   96.0774   -2.7389   21.7358 C   0  0
   95.0889   -1.7338   22.3003 C   0  0
   95.6777   -3.0325   20.2904 C   0  0
   97.4723   -2.1685   21.8101 C   0  0
   96.3012   -4.9435   26.0169 C   0  0
   96.4205   -6.0398   26.8792 C   0  0
   96.5670   -3.8290   27.9486 C   0  0
   95.2395   -7.7434   20.4610 C   0  0
   92.7510   -8.1055   19.5151 C   0  0
   90.8997   -7.1585   15.4435 C   0  0
   91.5971   -6.2333   14.5263 C   0  0
   92.3601   -5.1744   15.0362 C   0  0
   93.0307   -4.3221   14.1550 C   0  0
   92.9265   -4.5309   12.7764 C   0  0
   92.1545   -5.5938   12.3046 C   0  0
   89.6060   -8.5286   13.7310 C   0  0
   88.2629   -7.8744   13.4557 C   0  0
   87.5560   -8.5300   12.2696 C   0  0
   87.5146   -9.1376    9.4405 C   0  0
   89.7008   -8.7154   16.2268 C   0  0
   95.6779   -6.5683   22.5397 N   0  0
   96.2147   -3.9918   23.8383 N   0  0
   96.6759   -2.7084   28.8233 N   0  0
   96.3879   -3.7174   26.6191 N   0  0
   93.7783   -7.9462   20.4868 N   0  0
   91.3853   -7.9218   19.8964 N   0  0
   90.2760   -8.0923   17.2648 N   0  0
   91.0161   -7.1010   16.7918 N   0  0
   91.5189   -6.4146   13.1794 N   0  0
   90.0791   -8.1690   15.0625 N   0  0
   95.3055   -7.3182   24.7014 O   0  0
   95.9989   -3.9542   22.4745 O   0  0
   98.1685   -2.0137   20.7667 O   0  0
   98.0014   -1.7982   23.0424 O   0  0
   96.0940   -7.5589   19.5623 O   0  0
   93.0546   -8.4284   18.3386 O   0  0
   89.8626   -9.9210   19.1367 O   0  0
   88.7969   -7.7274   19.4093 O   0  0
   93.7319   -3.3821   14.6061 O   0  0
   93.6037   -3.7127   11.8716 O   0  0
   88.4111   -6.4987   13.2588 O   0  0
   88.1632   -6.7172   10.3570 O   0  0
   89.7846   -8.5259   10.7111 O   0  0
   88.8846   -9.6681   16.3296 O   0  0
   96.6240   -5.4268   28.4411 S   0  0
   90.0327   -8.4414   18.9428 S   0  0
   88.3213   -8.1712   10.6870 S   0  0
  2  1  1  0
  2  3  1  0
  2 30  1  0
  3 26  1  0
  3 13  1  0
  4  5  1  0
  5 10  1  0
  6 37  1  0
  6  7  1  0
  6  8  1  0
  6  9  1  0
  9 39  1  0
 10 29  1  0
 11 50  1  0
 12 50  1  0
 12 28  1  0
 13 30  1  0
 14 31  1  0
 15 16  1  0
 15 35  1  0
 17 18  1  0
 18 19  1  0
 19 45  1  0
 20 34  1  0
 21 35  1  0
 22 21  1  0
 22 46  1  0
 22 23  1  0
 23 52  1  0
 25 32  1  0
 26  4  1  0
 27 37  1  0
 30 14  1  0
 32 33  1  0
 34 16  1  0
 35 25  1  0
 51 31  1  0
 51 32  1  0
 52 24  1  0
  4 36  2  0
  5 27  2  0
  9 38  2  0
 10 11  2  0
 12 29  2  0
 13 40  2  0
 14 41  2  0
 15 33  2  0
 16 17  2  0
 18 44  2  0
 19 20  2  0
 25 49  2  0
 51 42  2  0
 51 43  2  0
 52 47  2  0
 52 48  2  0
M  END
> <Name>
CHEMBL3582364 PubChem-137090991

> <rmsd>
0.630998552

$$$$
CHEMBL2058184 PubChem-11542735
  SciTegic06052412183D

 90101  0  0  0  0            999 V2000
   97.8703   -0.9306   20.5895 C   0  0
   98.2759    0.1511   21.5776 C   0  0
   99.5961   -0.1694   22.2312 C   0  0
   99.4970    0.5475   23.5530 C   0  0
   98.0077    0.8173   23.6991 C   0  0
   96.9557    0.9117   25.9781 C   0  0
   96.8812   -1.1431   26.5230 C   0  0
   96.6981   -2.3871   27.1102 C   0  0
   97.6774   -3.3690   25.1665 C   0  0
   97.4404   -1.0513   25.2974 C   0  0
   95.6485   -3.5541   18.9242 C   0  0
   94.9275   -3.8145   17.6301 C   0  0
   94.1608   -2.5378   17.4097 C   0  0
   92.8928   -2.8132   16.6230 C   0  0
   91.4883   -2.1642   13.7291 C   0  0
   90.7940   -3.6545   12.2413 C   0  0
   90.2974   -3.7205   10.8157 C   0  0
   89.2749   -4.8348   10.8428 C   0  0
   89.3364   -5.6185    9.5459 C   0  0
   90.8361   -8.0427    6.8917 C   0  0
   91.6159   -9.3051    6.5941 C   0  0
   92.9708   -8.8000    6.1578 C   0  0
   93.4772   -9.6280    4.9921 C   0  0
   91.8288   -6.9390    6.5908 C   0  0
   91.0399   -4.5580    6.4248 C   0  0
   90.0023   -4.5539    4.5724 C   0  0
   89.2437   -4.2896    3.4425 C   0  0
   89.5774   -6.5583    2.7772 C   0  0
   90.5122   -5.7897    4.7695 C   0  0
   90.0938   -4.8224   12.9157 C   0  0
   92.3518   -5.5264   13.8634 C   0  0
   91.7463   -6.8561   15.4022 C   0  0
   91.6255   -7.7200   16.4813 C   0  0
   89.2573   -7.6229   16.2070 C   0  0
   90.6399   -6.4087   14.7720 C   0  0
   94.7341   -2.5443   19.6031 C   0  0
   93.1101   -4.2249   20.5809 C   0  0
   93.1391   -3.6851   22.6345 C   0  0
   92.9542   -3.5272   24.0015 C   0  0
   94.4857   -1.6999   23.9273 C   0  0
   93.9820   -2.8656   21.9714 C   0  0
  100.6559    0.2978   21.4530 O   0  0
  100.1808    1.7688   23.5276 O   0  0
   97.3148    0.2908   22.5896 O   0  0
   97.6617   -2.1520   21.2369 O   0  0
   97.5612   -4.6900   20.6003 O   0  0
   99.5030   -3.3151   19.5435 O   0  0
   96.9009   -2.9712   18.6845 O   0  0
   92.1678   -1.6292   16.4700 O   0  0
   90.1894   -3.2705   15.8665 O   0  0
   89.7554   -0.7333   15.4828 O   0  0
   90.4258   -2.4610   12.8727 O   0  0
   88.3957   -6.6512    9.5671 O   0  0
   88.0059   -8.9177    8.3248 O   0  0
   88.3019   -6.8122    6.8150 O   0  0
   90.4418   -7.9616    8.2325 O   0  0
   94.7753   -9.2335    4.6649 O   0  0
   93.9534   -8.8526    2.1920 O   0  0
   96.5233   -9.1721    2.5373 O   0  0
   94.7584  -11.2782    2.7844 O   0  0
   92.8406   -7.4584    5.7709 O   0  0
   91.7588  -10.1188    7.7222 O   0  0
   89.5677   -5.6739   11.9299 O   0  0
   89.6960   -2.5237   10.4061 O   0  0
   93.8399   -1.9886   18.6640 O   0  0
   95.8113   -4.0503   16.5750 O   0  0
   97.4983    0.2350   24.9340 N   0  0
   96.5613    0.0804   26.9866 N   0  0
   96.1033   -2.5196   28.3984 N   0  0
   97.1031   -3.4893   26.4107 N   0  0
   97.8501   -2.1356   24.5948 N   0  0
   91.1677   -5.8167    5.9349 N   0  0
   90.3203   -3.7449    5.5992 N   0  0
   88.6797   -3.0043    3.2033 N   0  0
   89.0492   -5.3100    2.5566 N   0  0
   90.3176   -6.8118    3.9002 N   0  0
   90.9925   -5.5678   13.7956 N   0  0
   92.8528   -6.3245   14.8495 N   0  0
   92.7705   -8.1979   17.1768 N   0  0
   90.3680   -8.0916   16.8644 N   0  0
   89.3870   -6.7681   15.1465 N   0  0
   93.9832   -3.1872   20.6754 N   0  0
   92.5662   -4.5594   21.7851 N   0  0
   92.0656   -4.3669   24.7319 N   0  0
   93.6393   -2.5250   24.6263 N   0  0
   94.6681   -1.8679   22.5817 N   0  0
   97.8852   -3.3250   20.0324 P   0  0
   90.8754   -1.9956   15.4321 P   0  0
   88.7750   -7.6198    8.2270 P   0  0
   94.9652   -9.6142    3.0239 P   0  0
  1 45  1  0
  2  1  1  0
  2  3  1  0
  2 44  1  0
  3 42  1  0
  3  4  1  0
  4 43  1  0
  4  5  1  0
  5 44  1  0
  5 67  1  0
  7 68  1  0
  8 69  1  0
  8 70  1  0
  9 71  1  0
 10 67  1  0
 10  7  1  0
 11 48  1  0
 11 12  1  0
 12 13  1  0
 12 66  1  0
 13 14  1  0
 13 65  1  0
 14 49  1  0
 15 52  1  0
 16 52  1  0
 16 17  1  0
 17 18  1  0
 17 64  1  0
 18 19  1  0
 18 63  1  0
 19 53  1  0
 20 56  1  0
 20 21  1  0
 21 22  1  0
 21 62  1  0
 22 23  1  0
 22 61  1  0
 23 57  1  0
 24 61  1  0
 24 72  1  0
 24 20  1  0
 26 73  1  0
 27 74  1  0
 27 75  1  0
 28 76  1  0
 29 72  1  0
 29 26  1  0
 30 63  1  0
 30 77  1  0
 30 16  1  0
 32 78  1  0
 33 79  1  0
 33 80  1  0
 34 81  1  0
 35 77  1  0
 35 32  1  0
 36 65  1  0
 36 82  1  0
 36 11  1  0
 38 83  1  0
 39 84  1  0
 39 85  1  0
 40 86  1  0
 41 82  1  0
 41 38  1  0
 67  6  1  0
 72 25  1  0
 77 31  1  0
 82 37  1  0
 87 45  1  0
 87 47  1  0
 87 48  1  0
 88 49  1  0
 88 51  1  0
 88 15  1  0
 89 53  1  0
 89 55  1  0
 89 56  1  0
 90 57  1  0
 90 59  1  0
 90 60  1  0
  6 68  2  0
  7  8  2  0
  9 70  2  0
 10 71  2  0
 25 73  2  0
 26 27  2  0
 28 75  2  0
 29 76  2  0
 31 78  2  0
 32 33  2  0
 34 80  2  0
 35 81  2  0
 37 83  2  0
 38 39  2  0
 40 85  2  0
 41 86  2  0
 87 46  2  0
 88 50  2  0
 89 54  2  0
 90 58  2  0
M  END
> <Name>
CHEMBL2058184 PubChem-11542735

> <rmsd>
0.484009027

$$$$
CHEMBL555016 PubChem-10145907
  SciTegic06052412183D

 46 49  0  0  0  0            999 V2000
   99.9492   -5.6632   25.0436 C   0  0
   98.5234   -4.0102   23.9043 C   0  0
   97.5842   -2.8608   23.9870 C   0  0
   96.9193   -2.5668   25.2005 C   0  0
   96.0239   -1.4991   25.2754 C   0  0
   95.7708   -0.7091   24.1578 C   0  0
   96.4209   -0.9799   22.9572 C   0  0
   97.3312   -2.0455   22.8560 C   0  0
   97.7881   -1.5294   20.4619 C   0  0
   96.5210   -1.9863   19.7593 C   0  0
   96.7053   -3.3925   19.2113 C   0  0
   95.4747   -3.8300   18.4349 C   0  0
   93.7795   -5.3301   19.2895 C   0  0
   94.7377   -6.3401   19.8992 C   0  0
   93.3605   -5.7523   17.8841 C   0  0
   92.2324   -4.8730   17.3729 C   0  0
   91.8941   -5.2411   15.9631 C   0  0
   92.4035   -4.4468   14.9347 C   0  0
   92.1354   -4.7539   13.6031 C   0  0
   91.3434   -5.8585   13.2593 C   0  0
   89.7535   -6.2977   11.3759 C   0  0
   89.4639   -7.0805   10.1645 C   0  0
   92.1482   -5.8731   10.9054 C   0  0
   92.0092   -4.7569   10.0650 C   0  0
   93.0182   -4.4096    9.1687 C   0  0
   94.1836   -5.1713    9.1056 C   0  0
   94.3332   -6.2888    9.9290 C   0  0
   93.3239   -6.6627   10.8301 C   0  0
   93.5196   -7.9017   11.6168 C   0  0
   90.8167   -6.6708   14.2931 C   0  0
   90.0475   -7.8084   13.9994 C   0  0
   89.5387   -8.6112   15.0235 C   0  0
   89.7958   -8.2897   16.3568 C   0  0
   90.5695   -7.1707   16.6701 C   0  0
   91.0929   -6.3573   15.6513 C   0  0
   99.0997   -4.5285   25.0655 O   0  0
   98.8035   -4.5225   22.7871 O   0  0
   97.1226   -3.3366   26.3411 O   0  0
   98.0032   -2.2872   21.6488 O   0  0
   88.8016   -5.7375   11.9852 O   0  0
   88.3305   -7.0068    9.6213 O   0  0
   90.4277   -7.9153    9.6171 O   0  0
   94.6547   -8.4509   11.6607 O   0  0
   92.4567   -8.5235   12.2528 O   0  0
   94.3330   -3.9712   19.3374 N   0  0
   91.1049   -6.1499   11.8611 N   0  0
  1 36  1  0
  2 36  1  0
  2  3  1  0
  4 38  1  0
  4  5  1  0
  6  7  1  0
  8 39  1  0
  8  3  1  0
  9 39  1  0
  9 10  1  0
 10 11  1  0
 11 12  1  0
 12 45  1  0
 13 45  1  0
 13 14  1  0
 13 15  1  0
 15 16  1  0
 16 17  1  0
 18 19  1  0
 20 46  1  0
 20 30  1  0
 21 22  1  0
 22 42  1  0
 24 25  1  0
 26 27  1  0
 28 29  1  0
 28 23  1  0
 29 44  1  0
 31 32  1  0
 33 34  1  0
 35 17  1  0
 35 30  1  0
 46 21  1  0
 46 23  1  0
  2 37  2  0
  3  4  2  0
  5  6  2  0
  7  8  2  0
 17 18  2  0
 19 20  2  0
 21 40  2  0
 22 41  2  0
 23 24  2  0
 25 26  2  0
 27 28  2  0
 29 43  2  0
 30 31  2  0
 32 33  2  0
 34 35  2  0
M  END
> <Name>
CHEMBL555016 PubChem-10145907

> <rmsd>
0.581116498

$$$$
CHEMBL3979828 PubChem-73296613
  SciTegic06052412183D

 55 62  0  0  0  0            999 V2000
   97.2423  -11.2755   19.1116 C   0  0
   96.6076  -10.4963   20.2488 C   0  0
   95.2799  -11.1371   20.6072 C   0  0
   97.5241  -10.5819   21.4580 C   0  0
   96.3876   -9.0670   19.8275 C   0  0
   95.7277   -7.2854   18.7882 C   0  0
   95.6003   -8.6632   18.7565 C   0  0
   94.2820   -6.7171   16.7620 C   0  0
   92.8574   -5.8603   14.8520 C   0  0
   93.1675   -5.4941   13.5410 C   0  0
   92.2209   -5.6143   12.5247 C   0  0
   90.9391   -6.0953   12.7976 C   0  0
   90.5852   -6.4165   14.1255 C   0  0
   89.2744   -6.7985   14.4476 C   0  0
   88.9200   -7.0817   15.7684 C   0  0
   89.8702   -6.9747   16.7851 C   0  0
   91.1758   -6.5816   16.4838 C   0  0
   91.5518   -6.3024   15.1605 C   0  0
   89.3609   -7.3687   11.3645 C   0  0
   87.7139   -8.4070   10.0083 C   0  0
   88.9973   -9.7399   11.4841 C   0  0
   89.6944   -8.6137   11.9139 C   0  0
   86.2370   -7.1553    8.3152 C   0  0
   86.7597   -5.8765    8.5937 C   0  0
   86.2708   -4.7942    7.8708 C   0  0
   85.2990   -4.9346    6.8988 C   0  0
   84.7688   -6.1905    6.6072 C   0  0
   85.2451   -7.3015    7.3227 C   0  0
   85.6152   -2.7124    6.7544 C   0  0
   96.9328   -5.5830   20.1891 C   0  0
   96.3517   -4.4487   19.5991 C   0  0
   96.7352   -3.1641   19.9940 C   0  0
   97.7030   -2.9920   20.9874 C   0  0
   98.2916   -4.1215   21.5782 C   0  0
   97.9060   -5.4052   21.1839 C   0  0
   98.9435   -1.4058   22.4447 C   0  0
   98.1699   -1.2808   23.7503 C   0  0
   98.6225   -3.0513   25.2220 C   0  0
   98.0562   -4.3164   25.8733 C   0  0
   95.9221   -3.6798   25.4547 C   0  0
   96.3790   -2.3825   24.7813 C   0  0
   96.9406   -7.9990   20.4400 N   0  0
   96.5366   -6.9132   19.8037 N   0  0
   95.1421   -6.3699   17.8525 N   0  0
   93.8648   -5.6936   15.8573 N   0  0
   88.3844   -7.2974   10.4223 N   0  0
   88.0242   -9.6173   10.5440 N   0  0
   86.6918   -8.3278    9.0047 N   0  0
   84.9333   -3.7853    6.2763 N   0  0
   97.6991   -2.5840   24.1875 N   0  0
   93.9197   -7.9106   16.5794 O   0  0
   90.0322   -6.1951   11.7340 O   0  0
   98.0591   -1.6930   21.3652 O   0  0
   96.8203   -4.0255   26.4821 O   0  0
   86.6993   -3.1800    7.9717 S   0  0
  1  2  1  0
  2  3  1  0
  2  4  1  0
  2  5  1  0
  6 44  1  0
  7  5  1  0
  8 45  1  0
 10 11  1  0
 12 13  1  0
 12 52  1  0
 14 15  1  0
 16 17  1  0
 18  9  1  0
 18 13  1  0
 19 52  1  0
 20 46  1  0
 20 48  1  0
 21 47  1  0
 22 19  1  0
 24 25  1  0
 25 55  1  0
 26 27  1  0
 26 49  1  0
 28 23  1  0
 29 55  1  0
 31 32  1  0
 33 34  1  0
 33 53  1  0
 35 30  1  0
 36 53  1  0
 36 37  1  0
 37 50  1  0
 38 50  1  0
 38 39  1  0
 39 54  1  0
 40 54  1  0
 40 41  1  0
 41 50  1  0
 43 42  1  0
 43  6  1  0
 43 30  1  0
 44  8  1  0
 45  9  1  0
 48 23  1  0
  5 42  2  0
  6  7  2  0
  8 51  2  0
  9 10  2  0
 11 12  2  0
 13 14  2  0
 15 16  2  0
 17 18  2  0
 19 46  2  0
 20 47  2  0
 21 22  2  0
 23 24  2  0
 25 26  2  0
 27 28  2  0
 29 49  2  0
 30 31  2  0
 32 33  2  0
 34 35  2  0
M  END
> <Name>
CHEMBL3979828 PubChem-73296613

> <rmsd>
0.656506181

$$$$
CHEMBL439290 PubChem-44413848
  SciTegic06052412183D

 93104  0  0  0  0            999 V2000
  101.9769   -4.6806   29.6276 N   0  0
  100.0507   -3.4068   30.1991 N   0  0
  103.2018   -4.3003   27.5692 N   0  0
  101.1434   -2.1731   27.1024 N   0  0
   99.4581   -1.7327   28.5493 N   0  0
   93.9932   -1.7704   22.2813 N   0  0
   96.1176   -2.9087   22.5342 N   0  0
   97.9084   -1.8666   21.3669 N   0  0
   94.7364   -0.1000   20.9528 N   0  0
   97.5859    0.1577   20.0689 N   0  0
   92.4586   -5.3726   14.8261 N   0  0
   90.9524   -6.0586   16.5967 N   0  0
   89.4931   -7.8388   15.9832 N   0  0
   91.7365   -6.8544   13.2729 N   0  0
   89.5316   -8.8158   13.7656 N   0  0
   89.1387   -4.9158    8.8873 N   0  0
   87.9466   -6.9741    9.3230 N   0  0
   85.8741   -7.1519    8.1626 N   0  0
   87.6155   -4.0118    7.4760 N   0  0
   85.0751   -5.3959    6.6945 N   0  0
  100.9509   -4.3910   30.4945 C   0  0
  100.2081   -2.7332   29.0311 C   0  0
  101.2082   -3.0001   28.1623 C   0  0
  102.1313   -3.9935   28.4551 C   0  0
  100.0557   -1.3966   27.3757 C   0  0
   98.3227   -1.0597   29.1702 C   0  0
   97.2398   -2.0591   29.5506 C   0  0
   94.5473   -4.0736   25.9711 C   0  0
   93.4415   -3.8253   24.9621 C   0  0
   93.5676   -4.7918   23.8158 C   0  0
   93.0511   -4.0021   22.6394 C   0  0
   93.1063   -2.5633   23.1229 C   0  0
   95.3052   -1.9300   22.0663 C   0  0
   97.4373   -2.8701   22.1749 C   0  0
   97.0834   -0.8864   20.8974 C   0  0
   95.7460   -0.9353   21.2669 C   0  0
   93.6676   -0.6451   21.5997 C   0  0
   93.1313   -4.9339   18.6806 C   0  0
   93.8404   -4.0907   17.6384 C   0  0
   93.0243   -2.8623   17.3061 C   0  0
   92.3500   -3.2423   16.0153 C   0  0
   93.2487   -4.3178   15.4504 C   0  0
   91.4675   -6.1120   15.3452 C   0  0
   89.9528   -6.9360   16.9105 C   0  0
   90.0159   -7.8790   14.7243 C   0  0
   91.0341   -6.9902   14.4154 C   0  0
   92.6121   -5.8497   13.5646 C   0  0
   91.0177   -2.7502   12.4512 C   0  0
   91.1661   -3.9652   11.5518 C   0  0
   92.1102   -3.6721   10.4113 C   0  0
   91.5245   -4.4665    9.2628 C   0  0
   90.2382   -5.0330    9.8374 C   0  0
   88.1337   -5.7784    8.7092 C   0  0
   86.8011   -7.6670    9.0330 C   0  0
   86.0652   -5.9395    7.5597 C   0  0
   87.2294   -5.2434    7.8601 C   0  0
   88.7934   -3.8343    8.1372 C   0  0
   96.9148   -1.7205   30.9779 C   0  0
   97.6258   -0.3878   31.1674 C   0  0
   98.0324   -0.1109   32.6058 C   0  0
   96.1102   -1.8516   28.7552 O   0  0
   95.6922   -4.4479   28.9283 O   0  0
   94.4258   -3.1649   27.0264 O   0  0
   93.5440   -2.5169   24.4578 O   0  0
   91.7228   -4.3302   22.3353 O   0  0
   90.5921   -3.8122   20.0376 O   0  0
   93.1707   -4.2916   19.9200 O   0  0
   94.0473   -4.8604   16.4764 O   0  0
   92.2564   -2.1541   15.1367 O   0  0
   89.7319   -2.2163   15.9643 O   0  0
   90.1697   -3.0551   13.5196 O   0  0
   89.9266   -4.3289   11.0115 O   0  0
   92.3683   -5.5061    8.8548 O   0  0
   93.9771   -5.9127    6.8276 O   0  0
   91.4280   -5.7710    6.2668 O   0  0
   92.8968   -3.5391    6.9485 O   0  0
   93.4025   -4.0897   10.7370 O   0  0
   90.3482   -0.3913   14.2056 O   0  0
   93.8909   -1.7784   17.1321 O   0  0
   91.3019   -6.2886   20.4512 O   0  0
   92.8040   -5.9423   24.0575 O   0  0
   97.1793   -3.6278   26.9213 O   0  0
   97.4564   -2.7042   31.8091 O   0  0
   98.7429   -0.3708   30.3234 O   0  0
   96.8933    0.1100   33.3839 O   0  0
   96.1780   -0.0576   35.8961 O   0  0
   98.6276    0.7477   35.4568 O   0  0
   97.8590   -1.8761   35.0609 O   0  0
   95.8534   -3.3155   27.9333 P   0  0
   91.6834   -4.6517   20.6636 P   0  0
   90.6069   -1.9724   14.7512 P   0  0
   92.7049   -5.2000    7.2183 P   0  0
   97.3588   -0.2625   34.9718 P   0  0
  5 22  1  0
  6 33  1  0
 11 43  1  0
 16 53  1  0
 21  2  1  0
 22 23  1  0
 23  4  1  0
 24  3  1  0
 24  1  1  0
 25  5  1  0
 26  5  1  0
 26 27  1  0
 26 84  1  0
 27 61  1  0
 27 58  1  0
 28 63  1  0
 29 28  1  0
 29 30  1  0
 29 64  1  0
 30 31  1  0
 30 81  1  0
 31 32  1  0
 31 65  1  0
 32  6  1  0
 32 64  1  0
 34  7  1  0
 35  8  1  0
 35 10  1  0
 36  9  1  0
 36 33  1  0
 37  6  1  0
 38 67  1  0
 39 38  1  0
 39 40  1  0
 39 68  1  0
 40 41  1  0
 40 79  1  0
 41 42  1  0
 41 69  1  0
 42 11  1  0
 42 68  1  0
 44 12  1  0
 45 13  1  0
 45 15  1  0
 46 14  1  0
 46 43  1  0
 47 11  1  0
 48 71  1  0
 49 48  1  0
 49 50  1  0
 49 72  1  0
 50 51  1  0
 50 77  1  0
 51 52  1  0
 51 73  1  0
 52 16  1  0
 52 72  1  0
 54 17  1  0
 55 18  1  0
 55 20  1  0
 56 19  1  0
 56 53  1  0
 57 16  1  0
 58 83  1  0
 58 59  1  0
 59 84  1  0
 59 60  1  0
 60 85  1  0
 89 61  1  0
 89 63  1  0
 89 82  1  0
 90 65  1  0
 90 67  1  0
 90 80  1  0
 91 69  1  0
 91 71  1  0
 91 78  1  0
 92 73  1  0
 92 75  1  0
 92 76  1  0
 93 85  1  0
 93 87  1  0
 93 88  1  0
 21  1  2  0
 22  2  2  0
 23 24  2  0
 25  4  2  0
 33  7  2  0
 34  8  2  0
 35 36  2  0
 37  9  2  0
 43 12  2  0
 44 13  2  0
 45 46  2  0
 47 14  2  0
 53 17  2  0
 54 18  2  0
 55 56  2  0
 57 19  2  0
 89 62  2  0
 90 66  2  0
 91 70  2  0
 92 74  2  0
 93 86  2  0
M  END
> <Name>
CHEMBL439290 PubChem-44413848

> <rmsd>
0.555381417

$$$$
CHEMBL3144362 PubChem-90663912
  SciTegic06052412183D

 82 93  0  0  0  0            999 V2000
   88.1891   -9.5323   13.6313 N   0  0
   86.9104  -10.2914   15.3402 N   0  0
   85.1300  -11.9423   12.6028 N   0  0
   86.9804  -10.6393   11.8548 N   0  0
   84.5346  -12.0821   14.9492 N   0  0
   92.6392   -6.7040   14.0783 N   0  0
   90.7908   -5.3930   14.0458 N   0  0
   89.7753   -7.6144   16.7550 N   0  0
   91.9196   -8.1539   15.8698 N   0  0
   88.4652   -5.7722   15.8834 N   0  0
   98.9491   -3.8445   20.5482 N   0  0
   97.7312   -2.2998   21.6535 N   0  0
  100.9814   -0.6335   21.8425 N   0  0
  101.0776   -2.7052   20.6795 N   0  0
   98.9035    0.1909   22.8082 N   0  0
  101.5530   -4.3833   26.9394 N   0  0
  103.7273   -4.3033   27.5416 N   0  0
  104.1555   -3.4192   24.0223 N   0  0
  101.8882   -3.8372   24.6090 N   0  0
  105.9501   -3.6149   25.6432 N   0  0
   87.2121  -10.3050   13.1473 C   0  0
   86.4493  -10.7600   14.1666 C   0  0
   87.9864   -9.5369   14.9734 C   0  0
   85.3684  -11.5946   13.9033 C   0  0
   85.9271  -11.4746   11.5873 C   0  0
   89.2346   -8.8213   12.9051 C   0  0
   90.1848   -9.7980   12.2317 C   0  0
   93.8391  -10.3795   14.6453 C   0  0
   94.7127   -9.3446   13.9554 C   0  0
   93.9807   -7.1995   13.7729 C   0  0
   91.7616   -7.1385   14.9892 C   0  0
   90.6610   -6.3553   14.9690 C   0  0
   92.0218   -5.6358   13.5099 C   0  0
   89.6280   -6.5859   15.8631 C   0  0
   90.9092   -8.3922   16.7590 C   0  0
   94.8348   -7.2298   15.0219 C   0  0
   97.6278   -6.7467   17.1997 C   0  0
   98.7224   -6.4341   18.2060 C   0  0
   99.3331   -5.0431   19.8118 C   0  0
   99.7483   -2.8449   20.9169 C   0  0
   99.0250   -1.9243   21.5878 C   0  0
   97.7166   -3.4937   21.0002 C   0  0
   99.6411   -0.7871   22.0795 C   0  0
  101.6939   -1.5779   21.1519 C   0  0
   98.9213   -6.2911   20.5679 C   0  0
   97.9520   -5.8954   24.5327 C   0  0
   98.3780   -5.2277   25.8261 C   0  0
  100.1120   -4.5623   27.0280 C   0  0
  102.3046   -4.0768   25.8745 C   0  0
  103.6035   -4.0259   26.2314 C   0  0
  102.4416   -4.5240   27.9474 C   0  0
  104.5721   -3.6864   25.2955 C   0  0
  102.8298   -3.5049   23.6737 C   0  0
   99.3844   -3.2813   26.6771 C   0  0
   98.3111   -3.7218   25.7309 C   0  0
   98.5519   -7.2497   19.4681 C   0  0
   95.5050   -8.5622   14.9725 C   0  0
   90.2508   -9.3114   10.8120 C   0  0
   89.5640   -7.9680   10.8564 C   0  0
   88.8192   -7.7480    9.5506 C   0  0
   91.4489   -9.6878   12.8063 O   0  0
   91.0493  -11.3140   14.8372 O   0  0
   93.4515  -11.3770   13.7443 O   0  0
   93.9111   -8.4780   13.1958 O   0  0
   95.7888   -6.2065   14.9550 O   0  0
   94.2710   -5.0790   16.7956 O   0  0
   96.3713   -6.3623   17.6774 O   0  0
   98.7142   -5.0691   18.5551 O   0  0
  100.0037   -6.7897   21.2983 O   0  0
   98.3009   -8.0772   22.8126 O   0  0
   98.8137   -5.5535   23.4812 O   0  0
   99.6884   -5.5868   26.1615 O   0  0
   97.0659   -3.2709   26.1791 O   0  0
  100.6470   -7.5942   23.8659 O   0  0
   96.5807   -3.9461   16.3509 O   0  0
   91.2284  -12.4422   12.4996 O   0  0
   88.6635   -7.9737   11.9340 O   0  0
   88.2323   -6.4852    9.5436 O   0  0
   87.4831   -6.4760    8.4613 O   0  0
   91.7726  -11.1980   13.5145 P   0  0
   95.7093   -5.3948   16.4525 P   0  0
   99.4031   -7.0316   22.8661 P   0  0
  1 21  1  0
  6 31  1  0
 11 40  1  0
 16 49  1  0
 21  4  1  0
 22  2  1  0
 22 24  1  0
 23  1  1  0
 24  5  1  0
 25  3  1  0
 26  1  1  0
 26 27  1  0
 26 77  1  0
 27 61  1  0
 27 58  1  0
 28 63  1  0
 29 28  1  0
 29 64  1  0
 30 64  1  0
 30  6  1  0
 30 36  1  0
 31  9  1  0
 32  7  1  0
 32 34  1  0
 33  6  1  0
 34 10  1  0
 35  8  1  0
 36 65  1  0
 36 57  1  0
 37 67  1  0
 38 37  1  0
 38 68  1  0
 39 68  1  0
 39 11  1  0
 39 45  1  0
 40 14  1  0
 41 12  1  0
 41 43  1  0
 42 11  1  0
 43 15  1  0
 44 13  1  0
 45 69  1  0
 45 56  1  0
 46 71  1  0
 47 46  1  0
 47 72  1  0
 48 72  1  0
 48 16  1  0
 48 54  1  0
 49 19  1  0
 50 17  1  0
 50 52  1  0
 51 16  1  0
 52 20  1  0
 53 18  1  0
 54 55  1  0
 55 73  1  0
 55 47  1  0
 56 38  1  0
 57 29  1  0
 58 59  1  0
 59 77  1  0
 59 60  1  0
 60 78  1  0
 78 79  1  0
 80 61  1  0
 80 63  1  0
 80 76  1  0
 81 65  1  0
 81 67  1  0
 81 75  1  0
 82 69  1  0
 82 71  1  0
 82 74  1  0
 21 22  2  0
 23  2  2  0
 24  3  2  0
 25  4  2  0
 31 32  2  0
 33  7  2  0
 34  8  2  0
 35  9  2  0
 40 41  2  0
 42 12  2  0
 43 13  2  0
 44 14  2  0
 49 50  2  0
 51 17  2  0
 52 18  2  0
 53 19  2  0
 80 62  2  0
 81 66  2  0
 82 70  2  0
M  END
> <Name>
CHEMBL3144362 PubChem-90663912

> <rmsd>
0.660186529

$$$$
CHEMBL2058765 PubChem-56950528
  SciTegic06052412183D

 90101  0  0  0  0            999 V2000
   97.7998   -2.1655   18.6776 C   0  0
   98.3850   -1.8266   20.0401 C   0  0
   99.7270   -2.5169   20.2306 C   0  0
   99.5950   -3.2259   21.5428 C   0  0
   98.3437   -2.5927   22.1254 C   0  0
   96.9069   -4.5738   22.8113 C   0  0
   96.8199   -4.3059   24.9159 C   0  0
   96.5983   -4.3549   26.2843 C   0  0
   97.9370   -2.3952   26.5057 C   0  0
   97.5725   -3.3161   24.3953 C   0  0
   98.0282   -3.8882   17.3183 C   0  0
   95.1687   -4.3402   17.0237 C   0  0
   93.9567   -4.4758   17.8962 C   0  0
   92.8067   -4.2478   16.9499 C   0  0
   91.6868   -3.5360   17.6865 C   0  0
   88.3768   -4.7279   15.7345 C   0  0
   87.4217   -4.5512   14.5790 C   0  0
   86.8001   -5.9174   14.4430 C   0  0
   86.3343   -6.1867   13.0179 C   0  0
   84.6547   -6.9226    9.4030 C   0  0
   83.2711   -6.5173    9.8426 C   0  0
   82.4555   -7.7624    9.6095 C   0  0
   81.0197   -7.4087    9.2520 C   0  0
   84.4016   -8.1276    8.5177 C   0  0
   84.2207   -6.8974    6.3105 C   0  0
   85.7290   -7.8698    5.1745 C   0  0
   86.6290   -8.3307    4.2262 C   0  0
   87.4413   -9.8816    5.8508 C   0  0
   85.7135   -8.4181    6.4084 C   0  0
   88.4663   -6.2415   15.8930 C   0  0
   90.5047   -7.3506   16.8595 C   0  0
   91.9375   -7.0886   15.3114 C   0  0
   93.0497   -7.0377   14.4821 C   0  0
   91.7284   -5.8356   12.8993 C   0  0
   90.7744   -6.5274   14.9123 C   0  0
   94.6439   -3.6061   15.8001 C   0  0
   96.0674   -1.8690   14.6747 C   0  0
   95.9362   -0.2356   16.0298 C   0  0
   96.0158    0.9588   16.7327 C   0  0
   94.6020   -0.0070   18.3942 C   0  0
   95.2050   -1.2567   16.5233 C   0  0
  100.7376   -1.5590   20.3134 O   0  0
   99.4097   -4.5853   21.2982 O   0  0
   97.5044   -2.2169   21.0658 O   0  0
   97.5452   -3.5348   18.5769 O   0  0
   97.7719   -6.5172   17.9149 O   0  0
   98.0870   -5.9768   15.3924 O   0  0
   95.6791   -5.5874   16.6459 O   0  0
   90.5784   -3.4229   16.8458 O   0  0
   88.8696   -2.4005   18.5664 O   0  0
   89.5278   -4.8938   18.9713 O   0  0
   87.8689   -4.1568   16.9091 O   0  0
   87.4132   -6.2478   12.1313 O   0  0
   86.2041   -4.7712   10.3404 O   0  0
   87.8871   -6.5477    9.4327 O   0  0
   85.4472   -7.3079   10.4941 O   0  0
   80.9728   -6.6444    8.0798 O   0  0
   79.1370   -8.2445    7.0889 O   0  0
   78.2792   -6.3550    8.6883 O   0  0
   79.2003   -5.8128    6.1469 O   0  0
   83.0445   -8.5046    8.5730 O   0  0
   83.2281   -6.1570   11.1928 O   0  0
   87.7513   -6.8644   14.8524 O   0  0
   86.4411   -3.5918   14.8412 O   0  0
   93.2447   -3.4566   15.8739 O   0  0
   93.8631   -5.7478   18.4694 O   0  0
   97.6479   -3.4636   23.0710 N   0  0
   96.3804   -5.1259   23.9426 N   0  0
   95.8093   -5.3815   26.8703 N   0  0
   97.1715   -3.3888   27.0605 N   0  0
   98.1418   -2.3499   25.1551 N   0  0
   84.7691   -7.8245    7.1414 N   0  0
   84.7981   -6.9011    5.0756 N   0  0
   86.6816   -7.7689    2.9170 N   0  0
   87.4789   -9.3363    4.5894 N   0  0
   86.5496   -9.4220    6.7798 N   0  0
   89.8569   -6.6786   15.8751 N   0  0
   91.8032   -7.6223   16.5406 N   0  0
   94.2895   -7.6252   14.8641 N   0  0
   92.9199   -6.4034   13.2791 N   0  0
   90.6355   -5.8959   13.7209 N   0  0
   95.2740   -2.2970   15.6865 N   0  0
   96.4987   -0.5869   14.8573 N   0  0
   96.7784    2.0578   16.2435 N   0  0
   95.3363    1.0501   17.9141 N   0  0
   94.5315   -1.1790   17.6948 N   0  0
   97.3698   -5.5238   16.8519 P   0  0
   89.2140   -3.6803   17.8341 P   0  0
   86.7135   -6.1745   10.5895 P   0  0
   79.3908   -6.8105    7.4971 P   0  0
  1 45  1  0
  2  1  1  0
  2  3  1  0
  2 44  1  0
  3 42  1  0
  3  4  1  0
  4 43  1  0
  4  5  1  0
  5 44  1  0
  5 67  1  0
  7 68  1  0
  8 69  1  0
  8 70  1  0
  9 71  1  0
 10 67  1  0
 10  7  1  0
 11 45  1  0
 11 87  1  0
 12 48  1  0
 12 13  1  0
 13 14  1  0
 13 66  1  0
 14 15  1  0
 14 65  1  0
 15 49  1  0
 16 52  1  0
 16 17  1  0
 17 18  1  0
 17 64  1  0
 18 19  1  0
 18 63  1  0
 19 53  1  0
 20 56  1  0
 20 21  1  0
 21 22  1  0
 21 62  1  0
 22 23  1  0
 22 61  1  0
 23 57  1  0
 24 61  1  0
 24 72  1  0
 24 20  1  0
 26 73  1  0
 27 74  1  0
 27 75  1  0
 28 76  1  0
 29 72  1  0
 29 26  1  0
 30 63  1  0
 30 77  1  0
 30 16  1  0
 32 78  1  0
 33 79  1  0
 33 80  1  0
 34 81  1  0
 35 77  1  0
 35 32  1  0
 36 65  1  0
 36 82  1  0
 36 12  1  0
 38 83  1  0
 39 84  1  0
 39 85  1  0
 40 86  1  0
 41 82  1  0
 41 38  1  0
 67  6  1  0
 72 25  1  0
 77 31  1  0
 82 37  1  0
 87 47  1  0
 87 48  1  0
 88 49  1  0
 88 51  1  0
 88 52  1  0
 89 53  1  0
 89 55  1  0
 89 56  1  0
 90 57  1  0
 90 59  1  0
 90 60  1  0
  6 68  2  0
  7  8  2  0
  9 70  2  0
 10 71  2  0
 25 73  2  0
 26 27  2  0
 28 75  2  0
 29 76  2  0
 31 78  2  0
 32 33  2  0
 34 80  2  0
 35 81  2  0
 37 83  2  0
 38 39  2  0
 40 85  2  0
 41 86  2  0
 87 46  2  0
 88 50  2  0
 89 54  2  0
 90 58  2  0
M  END
> <Name>
CHEMBL2058765 PubChem-56950528

> <rmsd>
0.634215355

$$$$
CHEMBL2057905 PubChem-70688465
  SciTegic06052412183D

 92103  0  0  0  0            999 V2000
  103.1458   -6.4252   30.4937 P   0  0
   96.6609   -3.9604   24.9648 P   0  0
   95.5223   -3.7203   17.2721 P   0  0
   93.0457  -10.9105   13.6482 P   0  0
  103.5166   -6.7629   31.9188 O   0  0
  102.8241   -7.8493   29.6419 O   0  0
  104.4285   -5.5977   29.7612 O   0  0
  101.2002   -5.2670   29.1608 O   0  0
   98.5013   -5.3658   27.6319 O   0  0
   97.0577   -3.5310   26.5577 O   0  0
   95.2286   -4.4439   24.9280 O   0  0
   96.8576   -2.6169   23.9447 O   0  0
   95.3433   -0.7650   20.0838 O   0  0
   96.0467   -2.3827   18.1828 O   0  0
   95.0207   -3.2239   15.9345 O   0  0
   93.7995   -5.7079   17.3604 O   0  0
   95.7434   -8.6582   15.6490 O   0  0
   93.7917  -10.2461   15.0269 O   0  0
   91.6385  -11.3315   14.0042 O   0  0
   92.2661   -8.6117   12.4407 O   0  0
   88.8571   -7.1836   10.3153 O   0  0
   88.0511   -9.1607    8.8221 O   0  0
   90.4611  -10.2011   10.3825 O   0  0
   93.9208  -12.2854   13.1897 O   0  0
   92.6556   -8.2694   17.3038 O   0  0
   96.8286   -4.7670   17.0039 O   0  0
   97.9054   -2.3510   21.1754 O   0  0
   97.6760   -5.2147   24.4450 O   0  0
   99.6465   -2.1294   28.2825 O   0  0
  101.6735   -5.3639   30.4720 C   0  0
  101.1267   -3.8988   28.8949 C   0  0
   99.7031   -3.5086   28.5284 C   0  0
   99.2512   -4.2380   27.2802 C   0  0
   98.4205   -3.2132   26.5402 C   0  0
   96.2036   -2.9511   22.7547 C   0  0
   96.6230   -1.9991   21.6509 C   0  0
   95.6119   -2.0628   20.5276 C   0  0
   96.3197   -2.8633   19.4702 C   0  0
   94.1857   -4.6044   18.1205 C   0  0
   94.4556   -6.8009   17.9335 C   0  0
   94.0498   -8.0921   17.2357 C   0  0
   94.4764   -8.0868   15.7882 C   0  0
   93.4119   -8.8978   15.1036 C   0  0
   93.0042   -9.7819   12.2022 C   0  0
   90.9063   -8.9501   12.3576 C   0  0
   90.3936   -8.9063   10.9294 C   0  0
   88.9579   -8.4367   10.9261 C   0  0
   88.2042   -9.5010   10.1717 C   0  0
   89.1421  -10.6837   10.2653 C   0  0
   88.5994  -11.1597   12.7039 C   0  0
   88.3924  -13.2723   12.6803 C   0  0
   88.1994  -14.6241   12.9404 C   0  0
   88.6201  -15.0550   10.6324 C   0  0
   88.6771  -12.8623   11.4252 C   0  0
   92.2313   -8.7566   16.0515 C   0  0
   89.8758   -8.1330   15.4250 C   0  0
   90.1100   -6.1820   14.6222 C   0  0
   89.9818   -4.9272   14.0423 C   0  0
   92.3491   -4.6769   14.2340 C   0  0
   91.3270   -6.6341   14.9919 C   0  0
   97.7803   -2.6820   19.8130 C   0  0
   99.5220   -4.0534   18.6296 C   0  0
   99.2796   -5.9619   19.5212 C   0  0
   99.3438   -7.2808   19.9452 C   0  0
   97.5634   -6.8009   21.4622 C   0  0
   98.3824   -5.1203   20.0741 C   0  0
   98.6322   -1.9362   27.3279 C   0  0
   98.3062    0.3346   26.2951 C   0  0
  100.0001    0.4889   25.0280 C   0  0
  101.0088    0.8518   24.1421 C   0  0
  102.0353   -1.2611   24.5633 C   0  0
  100.0361   -0.7153   25.6350 C   0  0
   88.8111  -11.5312   11.4149 N   0  0
   88.3318  -12.2209   13.5156 N   0  0
   87.8930  -15.0930   14.2509 N   0  0
   88.3215  -15.4960   11.8977 N   0  0
   88.7996  -13.7204   10.3837 N   0  0
   91.2083   -7.8749   15.4907 N   0  0
   89.1616   -7.1006   14.8902 N   0  0
   88.7157   -4.4236   13.6319 N   0  0
   91.1192   -4.1908   13.8610 N   0  0
   92.4616   -5.9158   14.8041 N   0  0
   98.5200   -3.9063   19.5315 N   0  0
  100.0230   -5.3198   18.6004 N   0  0
  100.2846   -8.1962   19.3934 N   0  0
   98.4736   -7.6772   20.9226 N   0  0
   97.5129   -5.5035   21.0373 N   0  0
   98.9771   -0.8366   26.4374 N   0  0
   98.9191    1.1852   25.4244 N   0  0
  100.9989    2.1141   23.4763 N   0  0
  102.0173   -0.0434   23.9253 N   0  0
  101.0335   -1.6101   25.4285 N   0  0
  1  6  1  0
  1  7  1  0
  1 30  1  0
  2 10  1  0
  2 12  1  0
  2 28  1  0
  3 14  1  0
  3 39  1  0
  3 26  1  0
  4 18  1  0
  4 44  1  0
  4 24  1  0
 30  8  1  0
 31  8  1  0
 32 31  1  0
 32 33  1  0
 32 29  1  0
 33  9  1  0
 33 34  1  0
 34 10  1  0
 34 67  1  0
 35 12  1  0
 36 35  1  0
 36 37  1  0
 36 27  1  0
 37 13  1  0
 37 38  1  0
 38 14  1  0
 38 61  1  0
 39 16  1  0
 40 16  1  0
 41 40  1  0
 41 42  1  0
 41 25  1  0
 42 17  1  0
 42 43  1  0
 43 18  1  0
 43 55  1  0
 44 20  1  0
 45 20  1  0
 46 45  1  0
 46 47  1  0
 46 23  1  0
 47 21  1  0
 47 48  1  0
 48 22  1  0
 48 49  1  0
 49 23  1  0
 49 73  1  0
 51 74  1  0
 52 75  1  0
 52 76  1  0
 53 77  1  0
 54 73  1  0
 54 51  1  0
 55 25  1  0
 55 78  1  0
 57 79  1  0
 58 80  1  0
 58 81  1  0
 59 82  1  0
 60 78  1  0
 60 57  1  0
 61 27  1  0
 61 83  1  0
 63 84  1  0
 64 85  1  0
 64 86  1  0
 65 87  1  0
 66 83  1  0
 66 63  1  0
 67 29  1  0
 67 88  1  0
 69 89  1  0
 70 90  1  0
 70 91  1  0
 71 92  1  0
 72 88  1  0
 72 69  1  0
 73 50  1  0
 78 56  1  0
 83 62  1  0
 88 68  1  0
  1  5  2  0
  2 11  2  0
  3 15  2  0
  4 19  2  0
 50 74  2  0
 51 52  2  0
 53 76  2  0
 54 77  2  0
 56 79  2  0
 57 58  2  0
 59 81  2  0
 60 82  2  0
 62 84  2  0
 63 64  2  0
 65 86  2  0
 66 87  2  0
 68 89  2  0
 69 70  2  0
 71 91  2  0
 72 92  2  0
M  END
> <Name>
CHEMBL2057905 PubChem-70688465

> <rmsd>
0.61914587

$$$$
CHEMBL2058766 PubChem-56950658
  SciTegic06052412183D

 90101  0  0  0  0            999 V2000
   96.4515   -0.1899   20.4087 C   0  0
   97.6145    0.1161   21.3536 C   0  0
   98.6266   -1.0015   21.5354 C   0  0
   99.2246   -0.6696   22.8741 C   0  0
   98.2928    0.3898   23.4453 C   0  0
   97.4842    1.0272   25.7301 C   0  0
   97.2743   -0.8488   26.7045 C   0  0
   97.0363   -1.9136   27.5589 C   0  0
   97.7191   -3.3814   25.8066 C   0  0
   97.7245   -1.0746   25.4499 C   0  0
   94.5061   -0.4652   21.4431 C   0  0
   93.0311   -2.1003   19.5026 C   0  0
   92.2364   -1.5378   18.3582 C   0  0
   91.6753   -2.7804   17.7156 C   0  0
   91.3795   -2.5557   16.2376 C   0  0
   89.7119   -3.0376   13.5203 C   0  0
   90.0249   -2.3558   12.2163 C   0  0
   89.2411   -3.1736   11.2204 C   0  0
   89.8961   -3.1444    9.8471 C   0  0
   89.5919   -5.8435    8.2845 C   0  0
   89.2864   -7.0246    9.1499 C   0  0
   88.8425   -8.0881    8.1732 C   0  0
   89.9527   -9.1065    7.9856 C   0  0
   88.8005   -6.1201    7.0252 C   0  0
   87.4931   -3.9761    6.9195 C   0  0
   85.4796   -4.6485    6.9780 C   0  0
   84.1013   -4.8137    6.9991 C   0  0
   84.4545   -7.1655    7.1651 C   0  0
   86.2886   -5.7270    7.0406 C   0  0
   89.3678   -4.4508   13.0863 C   0  0
   91.7178   -5.3844   12.9727 C   0  0
   91.5965   -6.9935   14.3546 C   0  0
   91.7898   -8.0813   15.1930 C   0  0
   89.5214   -7.8577   15.8940 C   0  0
   90.3923   -6.3863   14.3076 C   0  0
   93.3660   -3.5018   19.0249 C   0  0
   95.4920   -2.9888   17.7494 C   0  0
   96.9256   -4.0865   18.8657 C   0  0
   98.0516   -4.6681   19.4307 C   0  0
   96.6393   -5.5990   21.1135 C   0  0
   95.7126   -4.2830   19.4270 C   0  0
   97.9975   -2.2466   21.6293 O   0  0
  100.4967   -0.1192   22.6960 O   0  0
   97.1666    0.5166   22.6184 O   0  0
   95.6031   -1.1642   20.9401 O   0  0
   92.3329   -0.9636   22.9685 O   0  0
   93.9594   -2.9784   22.6857 O   0  0
   92.2503   -2.1855   20.6638 O   0  0
   90.3804   -1.5864   16.0818 O   0  0
   87.8042   -1.6762   16.4809 O   0  0
   88.9731   -3.9983   16.4063 O   0  0
   88.5883   -2.4655   14.1292 O   0  0
   91.1400   -3.7853    9.8812 O   0  0
   90.8828   -3.2975    7.2734 O   0  0
   93.1750   -4.2195    8.0850 O   0  0
   90.9575   -5.8308    7.9823 O   0  0
   89.4263  -10.2926    7.4752 O   0  0
   91.8189  -10.9088    6.5665 O   0  0
   89.7897  -12.0915    5.4194 O   0  0
   90.3293   -9.4224    4.9972 O   0  0
   88.5236   -7.4993    6.9314 O   0  0
   88.2247   -6.7138    9.9980 O   0  0
   89.1448   -4.4949   11.6935 O   0  0
   89.5971   -1.0246   12.2071 O   0  0
   92.6170   -3.8122   17.8676 O   0  0
   91.2070   -0.7021   18.7997 O   0  0
   97.8769    0.1007   24.8167 N   0  0
   97.1103    0.4728   26.9182 N   0  0
   96.5637   -1.7114   28.8864 N   0  0
   97.2739   -3.1744   27.0879 N   0  0
   97.9489   -2.3228   24.9690 N   0  0
   87.5699   -5.3281    7.0128 N   0  0
   86.2081   -3.5210    6.9014 N   0  0
   83.2176   -3.6984    6.9183 N   0  0
   83.6116   -6.0856    7.0903 N   0  0
   85.8115   -6.9919    7.1422 N   0  0
   90.4439   -5.3658   13.4473 N   0  0
   92.4639   -6.3872   13.5212 N   0  0
   93.0440   -8.7526   15.2625 N   0  0
   90.7353   -8.4953   15.9555 N   0  0
   89.3401   -6.7881   15.0595 N   0  0
   94.7931   -3.6009   18.7408 N   0  0
   96.8255   -3.2737   17.7978 N   0  0
   99.3472   -4.4784   18.8723 N   0  0
   97.8825   -5.4209   20.5570 N   0  0
   95.5341   -5.0230   20.5484 N   0  0
   93.2203   -1.6468   21.9541 P   0  0
   88.9248   -2.4199   15.7914 P   0  0
   91.4956   -4.2486    8.2814 P   0  0
   90.3882  -10.6788    6.1321 P   0  0
  1 45  1  0
  2  1  1  0
  2  3  1  0
  2 44  1  0
  3 42  1  0
  3  4  1  0
  4 43  1  0
  4  5  1  0
  5 44  1  0
  5 67  1  0
  7 68  1  0
  8 69  1  0
  8 70  1  0
  9 71  1  0
 10 67  1  0
 10  7  1  0
 11 45  1  0
 11 87  1  0
 12 48  1  0
 12 13  1  0
 13 14  1  0
 13 66  1  0
 14 15  1  0
 14 65  1  0
 15 49  1  0
 16 52  1  0
 16 17  1  0
 17 18  1  0
 17 64  1  0
 18 19  1  0
 18 63  1  0
 19 53  1  0
 20 56  1  0
 20 21  1  0
 21 22  1  0
 21 62  1  0
 22 23  1  0
 22 61  1  0
 23 57  1  0
 24 61  1  0
 24 72  1  0
 24 20  1  0
 26 73  1  0
 27 74  1  0
 27 75  1  0
 28 76  1  0
 29 72  1  0
 29 26  1  0
 30 63  1  0
 30 77  1  0
 30 16  1  0
 32 78  1  0
 33 79  1  0
 33 80  1  0
 34 81  1  0
 35 77  1  0
 35 32  1  0
 36 65  1  0
 36 82  1  0
 36 12  1  0
 38 83  1  0
 39 84  1  0
 39 85  1  0
 40 86  1  0
 41 82  1  0
 41 38  1  0
 67  6  1  0
 72 25  1  0
 77 31  1  0
 82 37  1  0
 87 47  1  0
 87 48  1  0
 88 49  1  0
 88 51  1  0
 88 52  1  0
 89 53  1  0
 89 55  1  0
 89 56  1  0
 90 57  1  0
 90 59  1  0
 90 60  1  0
  6 68  2  0
  7  8  2  0
  9 70  2  0
 10 71  2  0
 25 73  2  0
 26 27  2  0
 28 75  2  0
 29 76  2  0
 31 78  2  0
 32 33  2  0
 34 80  2  0
 35 81  2  0
 37 83  2  0
 38 39  2  0
 40 85  2  0
 41 86  2  0
 87 46  2  0
 88 50  2  0
 89 54  2  0
 90 58  2  0
M  END
> <Name>
CHEMBL2058766 PubChem-56950658

> <rmsd>
0.629396021

$$$$
CHEMBL607504 PubChem-46876533
  SciTegic06052412183D

 41 46  0  0  0  0            999 V2000
   90.1934   -7.7189   14.7572 N   0  0
   91.4008   -7.2366   16.6095 N   0  0
   91.9476   -4.0981   14.8174 N   0  0
   90.5894   -5.6291   13.6018 N   0  0
   92.8332   -4.6435   17.0244 N   0  0
   96.4376   -3.6681   18.0129 N   0  0
   97.4083   -3.6805   22.5514 N   0  0
   97.6257   -2.6343   20.5569 N   0  0
   96.1077   -5.5572   21.7581 N   0  0
   95.6556   -5.4969   19.4233 N   0  0
   89.3163   -8.4281   13.8362 C   0  0
   87.9936   -7.7158   13.7151 C   0  0
   87.5805   -7.9951   12.2975 C   0  0
   88.8922   -8.3152   11.6084 C   0  0
   89.2867   -7.1854   10.6726 C   0  0
   90.7303   -6.5000   14.6316 C   0  0
   91.4492   -6.2118   15.7377 C   0  0
   90.6135   -8.1505   15.9728 C   0  0
   92.0842   -4.9813   15.8536 C   0  0
   91.2103   -4.4147   13.7034 C   0  0
   93.5206   -3.3680   17.1788 C   0  0
   94.7535   -3.3128   16.2869 C   0  0
   95.8445   -4.2332   16.8104 C   0  0
   96.3423   -4.3213   19.2805 C   0  0
   96.9142   -3.7684   20.4185 C   0  0
   96.7844   -4.3916   21.6092 C   0  0
   97.5336   -4.0024   23.9661 C   0  0
   96.8887   -2.9324   24.8154 C   0  0
   97.7599   -2.8867   26.0463 C   0  0
   98.9398   -3.7706   25.6875 C   0  0
  100.2574   -3.0856   26.0201 C   0  0
   97.9187   -2.6107   21.8883 C   0  0
   95.5384   -6.1113   20.6445 C   0  0
   89.9107   -8.5088   12.5650 O   0  0
   88.4301   -7.1536    9.5714 O   0  0
   86.7468   -9.1144   12.2231 O   0  0
   87.0761   -8.2207   14.6411 O   0  0
   98.8875   -4.0946   24.3214 O   0  0
  100.4208   -1.9267   25.2557 O   0  0
   97.1114   -3.4166   27.1664 O   0  0
   95.5674   -3.2820   25.1075 O   0  0
  1 16  1  0
  6 24  1  0
  7 32  1  0
 11  1  1  0
 11 12  1  0
 11 34  1  0
 12 13  1  0
 12 37  1  0
 13 14  1  0
 13 36  1  0
 14 34  1  0
 14 15  1  0
 15 35  1  0
 16  4  1  0
 17  2  1  0
 17 19  1  0
 18  1  1  0
 19  5  1  0
 20  3  1  0
 21  5  1  0
 21 22  1  0
 22 23  1  0
 23  6  1  0
 24 25  1  0
 25  8  1  0
 26  7  1  0
 26  9  1  0
 27  7  1  0
 27 28  1  0
 27 38  1  0
 28 29  1  0
 28 41  1  0
 29 30  1  0
 29 40  1  0
 30 38  1  0
 30 31  1  0
 31 39  1  0
 33 10  1  0
 16 17  2  0
 18  2  2  0
 19  3  2  0
 20  4  2  0
 24 10  2  0
 25 26  2  0
 32  8  2  0
 33  9  2  0
M  END
> <Name>
CHEMBL607504 PubChem-46876533

> <rmsd>
0.631251872

$$$$
CHEMBL155250 PubChem-44369589
  SciTegic06052412183D

 54 61  0  0  0  0            999 V2000
   99.0280   -2.9844   21.0361 C   0  0
   99.2601   -3.2386   22.4078 C   0  0
   98.6802   -2.3820   23.4700 C   0  0
   97.9418   -2.0820   25.8524 C   0  0
   96.6734   -2.5192   26.5850 C   0  0
   96.6014   -4.5660   25.6500 C   0  0
   97.8619   -4.3703   24.8079 C   0  0
  100.0876   -4.3080   22.7744 C   0  0
  100.6695   -5.1243   21.8072 C   0  0
  100.4255   -4.8869   20.4560 C   0  0
   99.5956   -3.8325   20.0504 C   0  0
   99.3242   -3.5869   18.6823 C   0  0
   98.5388   -2.4741   18.3337 C   0  0
   97.9980   -1.6575   19.3504 C   0  0
   97.1903   -0.5653   19.0178 C   0  0
   96.9134   -0.2792   17.6779 C   0  0
   97.4418   -1.0860   16.6666 C   0  0
   98.2491   -2.1800   16.9918 C   0  0
   99.9802   -5.8900   17.7411 C   0  0
   98.6267   -6.5828   17.7076 C   0  0
   96.5792   -6.2794   18.7922 C   0  0
   96.2271   -4.8575   19.1874 C   0  0
   94.8301   -3.7483   17.6613 C   0  0
   94.7577   -4.6076   16.4099 C   0  0
   92.4730   -5.3580   15.4267 C   0  0
   92.4394   -4.4438   14.3399 C   0  0
   91.3667   -4.5075   13.4099 C   0  0
   91.3206   -3.6139   12.3145 C   0  0
   90.2319   -3.6471   11.3089 C   0  0
   88.3517   -4.8951   10.2238 C   0  0
   87.7368   -6.2882   10.3641 C   0  0
   89.7018   -7.3238   10.7468 C   0  0
   90.5405   -6.0499   10.6502 C   0  0
   92.3140   -2.6375   12.1860 C   0  0
   93.3588   -2.5610   13.1038 C   0  0
   93.4208   -3.4596   14.1668 C   0  0
   90.3678   -6.2898   14.6263 C   0  0
   91.4231   -6.2844   15.5631 C   0  0
   91.4035   -7.2097   16.6194 C   0  0
   90.3536   -8.1233   16.7405 C   0  0
   89.3118   -8.1209   15.8099 C   0  0
   89.3187   -7.2055   14.7545 C   0  0
   98.6534   -1.1323   23.3023 O   0  0
   96.7396   -3.8931   26.8766 O   0  0
   89.8024   -2.5592   10.8368 O   0  0
   88.6208   -7.2533    9.8514 O   0  0
   98.1503   -2.9397   24.6864 N   0  0
   98.2480   -1.9368   20.6540 N   0  0
   99.8074   -4.4462   17.6329 N   0  0
   97.9962   -6.5086   19.0141 N   0  0
   94.8386   -4.5830   18.8549 N   0  0
   93.5282   -5.3853   16.4091 N   0  0
   89.6747   -4.8863   10.8452 N   0  0
   90.3692   -5.4126   13.5948 N   0  0
  1  2  1  0
  2  3  1  0
  3 47  1  0
  4 47  1  0
  4  5  1  0
  5 44  1  0
  6 44  1  0
  6  7  1  0
  7 47  1  0
  8  9  1  0
 10 11  1  0
 11  1  1  0
 12 13  1  0
 12 49  1  0
 14 48  1  0
 14 15  1  0
 16 17  1  0
 18 13  1  0
 19 49  1  0
 19 20  1  0
 20 50  1  0
 21 50  1  0
 21 22  1  0
 22 51  1  0
 23 51  1  0
 23 24  1  0
 24 52  1  0
 25 26  1  0
 27 28  1  0
 27 54  1  0
 28 29  1  0
 29 53  1  0
 30 53  1  0
 30 31  1  0
 31 46  1  0
 32 46  1  0
 32 33  1  0
 33 53  1  0
 34 35  1  0
 36 26  1  0
 37 38  1  0
 38 39  1  0
 40 41  1  0
 42 37  1  0
 52 25  1  0
  1 48  2  0
  2  8  2  0
  3 43  2  0
  9 10  2  0
 11 12  2  0
 13 14  2  0
 15 16  2  0
 17 18  2  0
 26 27  2  0
 28 34  2  0
 29 45  2  0
 35 36  2  0
 37 54  2  0
 38 25  2  0
 39 40  2  0
 41 42  2  0
M  END
> <Name>
CHEMBL155250 PubChem-44369589

> <rmsd>
0.555142283

$$$$
CHEMBL375360 PubChem-3081599
  SciTegic06052412183D

 78 81  0  0  0  0            999 V2000
   95.2298   -3.8878   16.4641 C   0  0
   95.6544   -1.3638   17.0566 C   0  0
   96.4503   -1.5241   18.3431 C   0  0
   95.7502   -0.7951   19.4854 C   0  0
   97.4069   -1.5658   21.2970 C   0  0
   98.3056   -1.1480   22.4183 C   0  0
   99.6731   -0.7818   21.8631 C   0  0
  100.2891    0.3238   22.6522 C   0  0
  100.5067    1.5621   22.0421 C   0  0
  101.0843    2.6073   22.7678 C   0  0
  101.4551    2.4195   24.1089 C   0  0
  101.2419    1.1763   24.7123 C   0  0
  100.6615    0.1307   23.9893 C   0  0
   97.3885   -2.6162   24.2763 C   0  0
   97.6355   -3.7090   25.2611 C   0  0
   96.9561   -4.9917   24.8066 C   0  0
   97.4791   -6.1663   25.5634 C   0  0
   94.4967   -1.4968   19.9101 C   0  0
   91.9772   -1.5607   19.7242 C   0  0
   91.8801   -2.3857   18.4869 C   0  0
   91.9162   -2.4653   15.9582 C   0  0
   90.6701   -3.3100   15.7005 C   0  0
   91.0102   -4.5325   14.9101 C   0  0
   91.5950   -4.5798   13.6464 C   0  0
   91.2340   -6.6114   14.2437 C   0  0
   91.1532   -8.0019   14.2865 C   0  0
   90.5913   -8.5883   15.4358 C   0  0
   90.1284   -7.7831   16.4995 C   0  0
   90.2207   -6.3814   16.4276 C   0  0
   90.7852   -5.8344   15.2764 C   0  0
   92.1863   -1.4979   14.8424 C   0  0
   91.5199   -0.5535   12.5920 C   0  0
   90.7695    0.7795   12.5420 C   0  0
   89.2571    0.6082   12.4852 C   0  0
   86.9041    0.1571   13.5180 C   0  0
   91.2460   -1.4035   11.3910 C   0  0
   90.0233   -3.3894   10.3842 C   0  0
   89.2836   -4.6009   10.9374 C   0  0
   89.4890   -5.8278   10.1058 C   0  0
   89.2075   -2.7273    9.3191 C   0  0
   88.9006   -2.1790    6.8713 C   0  0
   89.4893   -0.8262    6.4871 C   0  0
   89.2491    0.2045    7.5393 C   0  0
   87.9458    0.6037    7.8603 C   0  0
   87.7312    1.5815    8.8356 C   0  0
   88.8206    2.1683    9.4872 C   0  0
   90.1232    1.7748    9.1638 C   0  0
   90.3383    0.7950    8.1890 C   0  0
   88.9170   -3.0943    5.6938 C   0  0
   96.2456   -2.5372   15.8019 S   0  0
  102.3348    5.0097   24.2479 S   0  0
   88.5610    0.5207   14.1599 S   0  0
   96.6498   -0.5607   20.6121 N   0  0
   98.4493   -2.2077   23.4114 N   0  0
   97.1497   -3.3200   26.5751 N   0  0
   93.2423   -0.8395   19.7250 N   0  0
   91.7809   -1.7411   17.2137 N   0  0
   91.7337   -5.8668   13.2399 N   0  0
   91.2167   -1.2856   13.8136 N   0  0
   90.2849   -2.4600   11.4720 N   0  0
   89.6558   -2.7767    7.9642 N   0  0
   97.3624   -2.7713   20.9263 O   0  0
  102.0340    3.4435   24.8639 O   0  0
  101.0417    5.6440   23.8164 O   0  0
  103.2696    4.9240   23.0729 O   0  0
  103.0429    5.9506   25.4438 O   0  0
   96.2508   -2.0766   24.1932 O   0  0
   96.6992   -6.8565   26.2703 O   0  0
   98.8254   -6.5065   25.4816 O   0  0
   94.5395   -2.6706   20.3710 O   0  0
   91.9514   -3.6422   18.5684 O   0  0
   93.2812   -0.8720   14.8178 O   0  0
   91.8705   -1.1879   10.3182 O   0  0
   88.9102   -6.8946   10.4345 O   0  0
   90.3225   -5.8166    8.9911 O   0  0
   88.1226   -2.1546    9.6145 O   0  0
   90.0076   -3.4448    5.1685 O   0  0
   87.7197   -3.5669    5.1753 O   0  0
  1 50  1  0
  2 50  1  0
  2  3  1  0
  4  3  1  0
  4 53  1  0
  4 18  1  0
  6  5  1  0
  6  7  1  0
  6 54  1  0
  7  8  1  0
  9 10  1  0
 11 63  1  0
 11 12  1  0
 13  8  1  0
 15 14  1  0
 15 55  1  0
 15 16  1  0
 16 17  1  0
 17 69  1  0
 18 56  1  0
 19 56  1  0
 19 20  1  0
 20 57  1  0
 21 57  1  0
 21 22  1  0
 21 31  1  0
 22 23  1  0
 24 58  1  0
 26 27  1  0
 28 29  1  0
 30 23  1  0
 30 25  1  0
 31 59  1  0
 32 59  1  0
 32 33  1  0
 32 36  1  0
 33 34  1  0
 34 52  1  0
 35 52  1  0
 36 60  1  0
 37 60  1  0
 37 38  1  0
 37 40  1  0
 38 39  1  0
 39 75  1  0
 40 61  1  0
 41 61  1  0
 41 42  1  0
 41 49  1  0
 42 43  1  0
 44 45  1  0
 46 47  1  0
 48 43  1  0
 49 78  1  0
 51 63  1  0
 51 66  1  0
 53  5  1  0
 54 14  1  0
 58 25  1  0
  5 62  2  0
  8  9  2  0
 10 11  2  0
 12 13  2  0
 14 67  2  0
 17 68  2  0
 18 70  2  0
 20 71  2  0
 23 24  2  0
 25 26  2  0
 27 28  2  0
 29 30  2  0
 31 72  2  0
 36 73  2  0
 39 74  2  0
 40 76  2  0
 43 44  2  0
 45 46  2  0
 47 48  2  0
 49 77  2  0
 51 64  2  0
 51 65  2  0
M  END
> <Name>
CHEMBL375360 PubChem-3081599

> <rmsd>
0.62716949

$$$$
CHEMBL406590 PubChem-44296318
  SciTegic06052412183D

 97101  0  0  0  0            999 V2000
   79.5075   -7.6102    8.9317 C   0  0
   80.5662   -8.5538    9.4913 C   0  0
   80.9956   -9.5272    8.3948 C   0  0
   81.7841   -7.7831   10.0174 C   0  0
   81.6143   -5.4152   10.8507 C   0  0
   81.3894   -4.5074   12.0091 C   0  0
   80.5529   -3.3133   11.5843 C   0  0
   83.0581   -4.1444   13.8659 C   0  0
   84.4909   -3.9773   14.2909 C   0  0
   85.3919   -3.3299   13.2260 C   0  0
   86.0087   -4.2704   12.2324 C   0  0
   85.2374   -4.9829   11.3183 C   0  0
   85.8431   -5.7977   10.3608 C   0  0
   87.2371   -5.8992   10.3140 C   0  0
   88.0189   -5.2076   11.2382 C   0  0
   87.4080   -4.3827   12.1951 C   0  0
   86.0559   -5.3365   15.7793 C   0  0
   86.5483   -4.0899   16.4648 C   0  0
   86.0047   -4.0188   17.8839 C   0  0
   84.7770   -3.1248   17.8850 C   0  0
   85.2186   -1.6841   18.0740 C   0  0
   84.2014   -0.7329   17.4421 C   0  0
   88.6921   -3.1852   15.5514 C   0  0
   90.1879   -3.0529   15.5446 C   0  0
   90.7956   -3.6617   14.2745 C   0  0
   91.3945   -5.0363   14.4190 C   0  0
   92.6335   -5.4264   13.8975 C   0  0
   91.7098   -7.1966   14.6649 C   0  0
   91.4272   -8.5134   14.9913 C   0  0
   90.1900   -8.7907   15.6101 C   0  0
   89.2806   -7.7418   15.8764 C   0  0
   89.5889   -6.4076   15.5248 C   0  0
   90.8153   -6.1813   14.9084 C   0  0
   90.6335   -2.8472   18.0391 C   0  0
   91.7156   -2.7756   19.0809 C   0  0
   92.8933   -3.7428   18.8652 C   0  0
   92.4954   -5.1722   18.9629 C   0  0
   91.7223   -5.6503   20.0399 C   0  0
   91.4109   -7.0184   20.1144 C   0  0
   91.8467   -7.9122   19.1208 C   0  0
   92.5989   -7.4241   18.0550 C   0  0
   92.9308   -6.0644   17.9653 C   0  0
   92.0016   -0.5594   20.2506 C   0  0
   92.3950   -0.9835   21.6383 C   0  0
   92.5007    0.2233   22.5677 C   0  0
   93.8861   -2.9721   22.0625 C   0  0
   95.2752   -3.5215   22.0930 C   0  0
   95.3538   -5.0385   22.2702 C   0  0
   94.9357   -5.5572   23.6196 C   0  0
   97.2653   -2.1365   22.7963 C   0  0
   97.9042   -1.2388   23.7946 C   0  0
   97.3975    0.1693   23.5764 C   0  0
   96.3192    0.4142   24.6334 C   0  0
   96.5504   -0.6302   25.7158 C   0  0
   98.0003   -2.6990   25.8958 C   0  0
   99.3355   -3.2979   25.5502 C   0  0
  100.9038   -1.6822   26.6901 C   0  0
  101.5316   -1.2724   27.9766 C   0  0
  100.9835    0.0610   28.4632 C   0  0
   99.5570   -0.0965   28.9469 C   0  0
   98.9259    1.2498   29.1290 C   0  0
   99.2267   -4.8168   25.3896 C   0  0
   98.4188   -5.1599   24.1471 C   0  0
   82.7811   -8.7306   10.6221 C   0  0
   81.3632   -6.8133   11.0135 N   0  0
   82.6801   -4.0454   12.4946 N   0  0
   85.0449   -5.2419   14.7677 N   0  0
   84.3363   -0.7576   15.9874 N   0  0
   88.0033   -4.0418   16.4735 N   0  0
   92.8166   -6.7632   14.0435 N   0  0
   90.8465   -3.5016   16.7732 N   0  0
   92.2291   -1.4152   19.1280 N   0  0
   93.6800   -1.6420   21.5974 N   0  0
   96.0627   -2.8343   23.1033 N   0  0
   97.4853   -1.5859   25.1450 N   0  0
  100.2818   -2.9728   26.6114 N   0  0
  102.9751   -1.1641   27.7994 N   0  0
   82.0574   -4.9652    9.7577 O   0  0
   82.1891   -4.4001   14.7480 O   0  0
   87.8349   -6.6962    9.3426 O   0  0
   86.4807   -6.4685   16.1332 O   0  0
   88.0309   -2.5085   14.7101 O   0  0
   89.5662   -2.2145   18.2575 O   0  0
   91.3605    0.5196   20.0705 O   0  0
   92.9090   -3.6541   22.4650 O   0  0
   94.9717   -6.7980   23.8339 O   0  0
   94.5915   -4.6916   24.6604 O   0  0
   97.8016   -2.2617   21.6638 O   0  0
   97.3681   -3.1231   26.9064 O   0  0
  100.9161   -0.9069   25.6902 O   0  0
   99.3085    2.0058   30.0540 O   0  0
   97.8944    1.6512   28.2805 O   0  0
  100.4923   -5.3814   25.2518 O   0  0
   83.7715   -8.2756   11.2405 O   0  0
   83.8889   -8.2413   11.3117 O   0  0
   79.7982   -2.5056   13.0322 S   0  0
   92.6465   -0.3335   24.3033 S   0  0
  1  2  1  0
  2  3  1  0
  4  2  1  0
  4 65  1  0
  4 64  1  0
  6  5  1  0
  6  7  1  0
  6 66  1  0
  7 96  1  0
  9  8  1  0
  9 10  1  0
  9 67  1  0
 10 11  1  0
 12 13  1  0
 14 80  1  0
 14 15  1  0
 16 11  1  0
 18 17  1  0
 18 19  1  0
 18 69  1  0
 19 20  1  0
 20 21  1  0
 21 22  1  0
 22 68  1  0
 24 23  1  0
 24 25  1  0
 24 71  1  0
 25 26  1  0
 27 70  1  0
 29 30  1  0
 31 32  1  0
 33 26  1  0
 33 28  1  0
 35 34  1  0
 35 36  1  0
 35 72  1  0
 36 37  1  0
 38 39  1  0
 40 41  1  0
 42 37  1  0
 44 43  1  0
 44 45  1  0
 44 73  1  0
 45 97  1  0
 47 46  1  0
 47 48  1  0
 47 74  1  0
 48 49  1  0
 49 87  1  0
 51 50  1  0
 51 52  1  0
 51 75  1  0
 52 53  1  0
 53 54  1  0
 54 75  1  0
 56 55  1  0
 56 76  1  0
 56 62  1  0
 58 57  1  0
 58 77  1  0
 58 59  1  0
 59 60  1  0
 60 61  1  0
 61 92  1  0
 62 63  1  0
 62 93  1  0
 64 95  1  0
 65  5  1  0
 66  8  1  0
 67 17  1  0
 69 23  1  0
 70 28  1  0
 71 34  1  0
 72 43  1  0
 73 46  1  0
 74 50  1  0
 75 55  1  0
 76 57  1  0
  5 78  2  0
  8 79  2  0
 11 12  2  0
 13 14  2  0
 15 16  2  0
 17 81  2  0
 23 82  2  0
 26 27  2  0
 28 29  2  0
 30 31  2  0
 32 33  2  0
 34 83  2  0
 37 38  2  0
 39 40  2  0
 41 42  2  0
 43 84  2  0
 46 85  2  0
 49 86  2  0
 50 88  2  0
 55 89  2  0
 57 90  2  0
 61 91  2  0
 64 94  2  0
M  END
> <Name>
CHEMBL406590 PubChem-44296318

> <rmsd>
0.663527369

$$$$
CHEMBL1189876 CHEMBL539607
  SciTegic06052412183D

 50 55  0  0  0  0            999 V2000
   99.2303   -3.7306   22.7283 C   0  0
   98.6982   -3.6587   24.0227 C   0  0
   99.1830   -4.4816   25.0477 C   0  0
  100.2156   -5.3881   24.7709 C   0  0
  100.7590   -5.4742   23.4879 C   0  0
  100.2688   -4.6434   22.4522 C   0  0
  100.8280   -4.7410   21.1605 C   0  0
  100.3235   -3.8820   20.0702 C   0  0
   98.7076   -2.1373   19.2509 C   0  0
   97.7575   -2.9541   18.3874 C   0  0
   96.4729   -3.2488   19.1424 C   0  0
   94.2364   -3.7512   18.6856 C   0  0
   93.6672   -2.7398   17.6989 C   0  0
   93.4673   -3.3650   16.3280 C   0  0
   91.9728   -5.1191   15.2487 C   0  0
   90.9363   -6.0810   15.3589 C   0  0
   90.2607   -6.3365   16.5794 C   0  0
   89.2358   -7.2905   16.6240 C   0  0
   88.5487   -7.5626   17.8158 C   0  0
   87.5276   -8.5170   17.8374 C   0  0
   87.1869   -9.2048   16.6693 C   0  0
   87.8666   -8.9399   15.4772 C   0  0
   88.8886   -7.9865   15.4508 C   0  0
   90.5505   -6.8205   14.2023 C   0  0
   91.1982   -6.5985   12.9621 C   0  0
   92.2108   -5.6376   12.8911 C   0  0
   92.5924   -4.9121   14.0127 C   0  0
   90.8534   -7.3336   11.7167 C   0  0
   89.5611   -9.1719   10.5431 C   0  0
   88.2608   -8.5613   10.0407 C   0  0
   88.4962   -7.3728    8.0442 C   0  0
   87.3418   -6.4304    9.8321 C   0  0
   95.8176   -5.4581   18.7722 C   0  0
   98.7086   -2.8582   21.6569 C   0  0
  101.8609   -5.6580   20.9210 C   0  0
  102.3381   -6.4735   21.9499 C   0  0
  101.7885   -6.3820   23.2302 C   0  0
  100.8272   -3.9621   18.9159 O   0  0
   91.3329   -6.9477   10.6148 O   0  0
   90.5941   -5.6543   17.7477 O   0  0
   97.7881   -2.0316   21.9056 O   0  0
   99.0472   -5.1281   27.2833 O   0  0
   97.6144   -3.4996   26.6342 O   0  5
   99.2556   -2.9550   20.3312 N   0  0
   95.6063   -4.0896   18.3328 N   0  0
   92.3958   -4.3495   16.3813 N   0  0
   89.5456   -7.7340   14.2939 N   0  0
   90.0083   -8.4882   11.7480 N   0  0
   88.4982   -7.2372    9.4898 N   0  0
   98.6253   -4.3938   26.3658 N   0  3
  2  3  1  0
  3 50  1  0
  4  5  1  0
  6  7  1  0
  6  1  1  0
  7  8  1  0
  8 44  1  0
  9 44  1  0
  9 10  1  0
 10 11  1  0
 11 45  1  0
 12 45  1  0
 12 13  1  0
 13 14  1  0
 14 46  1  0
 15 16  1  0
 17 18  1  0
 17 40  1  0
 19 20  1  0
 21 22  1  0
 23 47  1  0
 23 18  1  0
 24 25  1  0
 24 16  1  0
 25 28  1  0
 26 27  1  0
 28 48  1  0
 29 48  1  0
 29 30  1  0
 30 49  1  0
 31 49  1  0
 32 49  1  0
 33 45  1  0
 34  1  1  0
 35 36  1  0
 37  5  1  0
 44 34  1  0
 46 15  1  0
 50 43  1  0
  1  2  2  0
  3  4  2  0
  5  6  2  0
  7 35  2  0
  8 38  2  0
 16 17  2  0
 18 19  2  0
 20 21  2  0
 22 23  2  0
 24 47  2  0
 25 26  2  0
 27 15  2  0
 28 39  2  0
 34 41  2  0
 36 37  2  0
 50 42  2  0
M  CHG  2  43  -1  50   1
M  END
> <Name>
CHEMBL1189876 CHEMBL539607

> <rmsd>
0.631767333

$$$$
CHEMBL410213 PubChem-44340441
  SciTegic06052412183D

 78 86  0  0  0  0            999 V2000
   90.9079   -4.5107   14.6294 N   0  0
   92.4553   -5.8917   13.7156 N   0  0
   90.4461   -8.4290   15.4077 N   0  0
   89.6076   -6.2268   15.7292 N   0  0
   92.4280   -8.8617   14.0834 N   0  0
   93.3869   -2.7364   22.9219 N   0  0
   92.7472   -3.5853   24.9205 N   0  0
   94.2162   -6.6253   23.5251 N   0  0
   94.3395   -4.7756   22.0324 N   0  0
   93.1963   -6.4379   25.7163 N   0  0
   98.5226   -3.0076   28.4116 N   0  0
  100.7254   -2.4879   28.3590 N   0  0
  100.4807   -3.3085   31.9116 N   0  0
   98.4071   -3.5381   30.7681 N   0  0
  102.4984   -2.5982   30.7714 N   0  0
   90.6492   -5.7720   14.9900 C   0  0
   91.5739   -6.5940   14.4508 C   0  0
   92.0079   -4.6093   13.8354 C   0  0
   91.4844   -7.9630   14.6535 C   0  0
   89.5156   -7.5748   15.9437 C   0  0
   88.3942   -8.1182   16.7519 C   0  0
   90.0633   -3.3421   14.8647 C   0  0
   90.8854   -2.0729   14.9709 C   0  0
   90.7091   -1.4445   13.6155 C   0  0
   89.4299   -2.0568   13.0950 C   0  0
   89.5513   -2.3807   11.6117 C   0  0
   93.2846   -2.2511   18.3511 C   0  0
   93.5014   -1.4871   19.6507 C   0  0
   93.6040   -1.7759   21.8471 C   0  0
   93.7067   -4.0349   22.9741 C   0  0
   93.3309   -4.5385   24.1695 C   0  0
   92.7985   -2.4835   24.1184 C   0  0
   93.5834   -5.8691   24.4695 C   0  0
   94.5943   -6.0888   22.3180 C   0  0
   95.2817   -6.9416   21.3135 C   0  0
   95.0576   -1.7348   21.4326 C   0  0
   94.9821   -1.4018   19.9593 C   0  0
   96.1727   -1.9627   24.9732 C   0  0
   95.8787   -2.8740   26.1498 C   0  0
   97.1432   -3.2479   27.9964 C   0  0
   99.0411   -3.1461   29.6356 C   0  0
  100.3539   -2.8354   29.6044 C   0  0
   99.5704   -2.6063   27.6450 C   0  0
  101.1106   -2.9141   30.7652 C   0  0
   99.1432   -3.6161   31.9190 C   0  0
   98.4911   -4.0379   33.1868 C   0  0
   96.2822   -2.0600   28.3388 C   0  0
   95.2364   -2.0679   27.2573 C   0  0
   89.1206   -3.2210   13.8240 O   0  0
   90.6095   -3.2671   11.3905 O   0  0
   91.8699   -4.2767    9.3301 O   0  0
   89.2718   -4.7166    9.3988 O   0  0
   90.8138   -6.6211   10.4465 O   0  0
   88.3163   -7.2777    9.9681 O   0  0
   90.0119   -7.8919    8.0239 O   0  0
   87.6183   -8.9083    7.8594 O   0  0
   88.0783   -6.2425    7.3887 O   0  0
   89.0051   -5.5928   12.0185 O   0  0
   90.3434   -2.2357    8.8283 O   0  0
   90.5901   -0.0538   13.6880 O   0  0
   90.3505   -1.2617   15.9789 O   0  0
   91.2709    0.2539   17.8927 O   0  0
   91.9263   -2.2787   18.0135 O   0  0
   92.8514   -2.1278   20.7174 O   0  0
   95.4332   -0.1047   19.6938 O   0  0
   95.7598   -0.7701   22.1666 O   0  0
   98.0996   -0.5470   23.3257 O   0  0
   96.7182   -2.7034   23.9222 O   0  0
   97.0761   -3.4637   26.6074 O   0  0
   94.0746   -2.7257   27.6752 O   0  0
   95.7233   -2.2111   29.6107 O   0  0
   97.9235   -2.3607   21.4662 O   0  0
   93.0254   -0.5240   16.1222 O   0  0
   90.5556   -3.6493    9.7379 P   0  0
   89.4071   -6.0603   10.4428 P   0  0
   88.5601   -7.5787    8.3092 P   0  0
   91.6441   -0.9240   17.0227 P   0  0
   97.1469   -1.5643   22.7406 P   0  0
  1 16  1  0
  6 30  1  0
 11 41  1  0
 16  4  1  0
 17  2  1  0
 17 19  1  0
 18  1  1  0
 19  5  1  0
 20  3  1  0
 21 20  1  0
 22  1  1  0
 22 23  1  0
 22 49  1  0
 23 24  1  0
 23 61  1  0
 24 25  1  0
 24 60  1  0
 25 49  1  0
 25 26  1  0
 26 50  1  0
 27 63  1  0
 28 27  1  0
 28 64  1  0
 29 64  1  0
 29  6  1  0
 29 36  1  0
 30  9  1  0
 31  7  1  0
 31 33  1  0
 32  6  1  0
 33 10  1  0
 34  8  1  0
 35 34  1  0
 36 37  1  0
 36 66  1  0
 37 65  1  0
 37 28  1  0
 38 68  1  0
 39 38  1  0
 39 69  1  0
 40 69  1  0
 40 11  1  0
 40 47  1  0
 41 14  1  0
 42 12  1  0
 42 44  1  0
 43 11  1  0
 44 15  1  0
 45 13  1  0
 46 45  1  0
 47 48  1  0
 47 71  1  0
 48 70  1  0
 48 39  1  0
 74 50  1  0
 74 52  1  0
 74 59  1  0
 75 52  1  0
 75 54  1  0
 75 58  1  0
 76 54  1  0
 76 56  1  0
 76 57  1  0
 77 61  1  0
 77 63  1  0
 77 73  1  0
 78 66  1  0
 78 68  1  0
 78 72  1  0
 16 17  2  0
 18  2  2  0
 19  3  2  0
 20  4  2  0
 30 31  2  0
 32  7  2  0
 33  8  2  0
 34  9  2  0
 41 42  2  0
 43 12  2  0
 44 13  2  0
 45 14  2  0
 74 51  2  0
 75 53  2  0
 76 55  2  0
 77 62  2  0
 78 67  2  0
M  END
> <Name>
CHEMBL410213 PubChem-44340441

> <rmsd>
0.500979722

$$$$
CHEMBL3963460 PubChem-134149866
  SciTegic06052412183D

112114  0  0  0  0            999 V2000
   94.8989   -6.0479   18.3663 N   0  0
   93.2650   -8.3332   17.4359 N   0  0
   94.5852   -9.1189   14.9411 N   0  0
   93.2894   -9.4314   12.3295 N   0  0
   91.3251   -8.4346    9.6191 N   0  0
   88.8454   -9.2947    8.3985 N   0  0
   86.3807  -12.1139    8.1914 N   0  0
   87.7940  -15.3484    7.2946 N   0  0
   90.0355  -17.4259    7.5700 N   0  0
   89.0295   -9.1659    5.4272 N   0  0
   88.3611  -10.3894    3.6686 N   0  0
   89.9168   -5.8448   16.0952 N   0  0
   91.9328   -9.4709   21.0556 N   0  0
   97.3214   -3.0195   23.8243 N   0  0
   99.1320   -2.6896   25.8967 N   0  0
   98.7999   -0.8277   28.2962 N   0  0
  100.3910   -1.7177   31.5911 N   0  0
  101.5826   -5.2009   32.3590 N   0  0
  103.6999   -4.5185   34.8918 N   0  0
  102.6459    2.1583   30.7688 N   0  0
  103.6759   -6.4020   27.1414 N   0  0
   94.6423   -7.2015   19.2260 C   0  0
   94.3436   -8.3895   18.3750 C   0  0
   92.7772   -9.4875   16.6904 C   0  0
   93.7933  -10.0146   15.7305 C   0  0
   95.3616   -9.5219   13.7725 C   0  0
   96.5266  -10.4191   14.1714 C   0  0
   94.4727  -10.1294   12.7237 C   0  0
   92.3249   -9.9535   11.3693 C   0  0
   91.3579   -8.8752   10.9760 C   0  0
   90.3811   -7.4274    9.1435 C   0  0
   89.0164   -8.0140    9.0128 C   0  0
   87.5353   -9.8663    8.1110 C   0  0
   87.5940  -11.3652    8.0692 C   0  0
   86.3519  -13.5660    8.3345 C   0  0
   86.8803  -14.2655    7.1191 C   0  0
   88.3671  -16.1043    6.1880 C   0  0
   88.9022  -17.4048    6.7000 C   0  0
   89.4544  -15.2802    5.4967 C   0  0
   89.9755  -15.9581    4.2394 C   0  0
   89.3468  -14.1490    2.4363 C   0  0
   84.9603  -14.0634    8.7252 C   0  0
   83.8788  -13.7119    7.7130 C   0  0
   82.7605  -14.7282    7.8090 C   0  0
   83.3183  -12.3329    8.0014 C   0  0
   86.9425   -9.2777    6.8273 C   0  0
   87.7646   -9.5847    5.6143 C   0  0
   89.3635   -9.6793    4.2272 C   0  0
   87.3417  -10.3291    4.5441 C   0  0
   91.6536  -11.2325   11.8910 C   0  0
   90.8173  -11.8921   10.8088 C   0  0
   90.8031  -10.9931   13.1348 C   0  0
   91.4463   -9.2112   15.9792 C   0  0
   91.0723   -7.7633   15.8384 C   0  0
   89.9954   -7.1466   16.4634 C   0  0
   90.9373   -5.6531   15.2420 C   0  0
   91.6620   -6.7981   15.0545 C   0  0
   92.7492   -6.8496   14.1858 C   0  0
   93.0976   -5.6727   13.5023 C   0  0
   92.3543   -4.4876   13.6994 C   0  0
   91.2551   -4.4686   14.5790 C   0  0
   93.4550   -6.9284   20.1500 C   0  0
   93.6251   -7.6420   21.4841 C   0  0
   93.2636   -9.0861   21.3790 C   0  0
   95.2173   -4.7482   18.8769 C   0  0
   95.4883   -3.6263   17.9275 C   0  0
   96.3196   -1.7684   18.7979 C   0  0
   97.2495   -1.4006   19.9484 C   0  0
   96.2921   -2.0833   21.8381 C   0  0
   96.2058   -3.1607   22.9026 C   0  0
   98.2664   -4.0671   24.0660 C   0  0
   99.3897   -3.8494   25.0425 C   0  0
   98.0487   -2.5911   26.8299 C   0  0
   97.7161   -1.2726   27.4330 C   0  0
   98.9628   -1.2969   29.6400 C   0  0
  100.1139   -0.8071   30.4797 C   0  0
  100.8170   -3.0758   31.4470 C   0  0
  100.9252   -3.9389   32.6657 C   0  0
  102.9401   -5.4853   32.6928 C   0  0
  103.8077   -4.4933   33.4229 C   0  0
  103.4688   -5.8599   35.4267 C   0  0
  102.5849   -3.6772   35.2995 C   0  0
   99.5390   -4.2103   33.2302 C   0  0
  101.3884   -0.5512   29.6713 C   0  0
  101.2906    2.0467   30.2548 C   0  0
  103.0113    1.6338   32.0442 C   0  0
  104.4072    1.7844   32.5280 C   0  0
   99.6744   -5.0949   25.8787 C   0  0
  101.0179   -4.9575   26.5801 C   0  0
  101.2661   -6.1955   27.4268 C   0  0
  102.6227   -6.1091   28.1005 C   0  0
   95.0287   -9.4382   18.5062 O   0  0
   93.8960  -11.2647   15.5855 O   0  0
   94.7408  -11.2542   12.2143 O   0  0
   90.5949   -8.3566   11.8360 O   0  0
   88.0189   -7.3570    9.4118 O   0  0
   88.6973  -11.9572    7.9148 O   0  0
   86.5277  -13.9013    5.9625 O   0  0
   88.3103  -18.4811    6.4100 O   0  0
   94.1361   -9.9666   21.6001 O   0  0
   95.2255   -4.5311   20.1204 O   0  0
   96.6950   -2.9981   18.2480 O   0  0
   97.2817   -2.4187   20.9073 O   0  0
   98.1927   -5.1488   23.4177 O   0  0
   97.3552   -3.6011   27.1281 O   0  0
   98.0949   -2.0610   30.1427 O   0  0
  101.0571   -3.5470   30.3010 O   0  0
  103.4370   -6.5865   32.3439 O   0  0
   99.6430   -4.8483   34.4659 O   0  0
  102.1635    1.0322   32.7580 O   0  0
   88.7746  -15.8159    2.8800 S   0  0
  101.2928    1.0243   28.7527 S   0  0
  1 65  1  0
 10 48  1  0
 12 56  1  0
 14 71  1  0
 15 73  1  0
 16 75  1  0
 17 77  1  0
 18 79  1  0
 20 86  1  0
 22  1  1  0
 22 23  1  0
 22 62  1  0
 23  2  1  0
 24  2  1  0
 24 25  1  0
 24 53  1  0
 25  3  1  0
 26  3  1  0
 26 27  1  0
 26 28  1  0
 28  4  1  0
 29  4  1  0
 29 30  1  0
 29 50  1  0
 30  5  1  0
 31  5  1  0
 31 32  1  0
 32  6  1  0
 33  6  1  0
 33 34  1  0
 33 46  1  0
 34  7  1  0
 35  7  1  0
 35 36  1  0
 35 42  1  0
 36  8  1  0
 37  8  1  0
 37 38  1  0
 37 39  1  0
 38  9  1  0
 39 40  1  0
 40111  1  0
 41111  1  0
 42 43  1  0
 43 44  1  0
 43 45  1  0
 46 47  1  0
 47 10  1  0
 49 11  1  0
 50 51  1  0
 50 52  1  0
 53 54  1  0
 55 12  1  0
 57 58  1  0
 57 54  1  0
 59 60  1  0
 61 56  1  0
 62 63  1  0
 63 64  1  0
 64 13  1  0
 66 65  1  0
 66102  1  0
 67102  1  0
 67 68  1  0
 68103  1  0
 69103  1  0
 69 70  1  0
 70 14  1  0
 72 71  1  0
 72 15  1  0
 72 88  1  0
 74 73  1  0
 74 16  1  0
 76 75  1  0
 76 17  1  0
 76 84  1  0
 78 77  1  0
 78 18  1  0
 78 83  1  0
 80 79  1  0
 80 19  1  0
 81 19  1  0
 82 19  1  0
 83109  1  0
 84112  1  0
 85112  1  0
 85 20  1  0
 87 86  1  0
 88 89  1  0
 89 90  1  0
 90 91  1  0
 91 21  1  0
 23 92  2  0
 25 93  2  0
 28 94  2  0
 30 95  2  0
 32 96  2  0
 34 97  2  0
 36 98  2  0
 38 99  2  0
 48 11  2  0
 49 47  2  0
 54 55  2  0
 56 57  2  0
 58 59  2  0
 60 61  2  0
 64100  2  0
 65101  2  0
 71104  2  0
 73105  2  0
 75106  2  0
 77107  2  0
 79108  2  0
 86110  2  0
M  END
> <Name>
CHEMBL3963460 PubChem-134149866

> <rmsd>
0.578395009

$$$$
CHEMBL610861 PubChem-46877374
  SciTegic06052412183D

 72 77  0  0  0  0            999 V2000
   98.3297   -4.9388   21.2524 N   0  0
   99.4759   -5.7576   19.4612 N   0  0
  100.2228   -3.8986   22.3426 N   0  0
  102.2807   -4.1567   21.1745 N   0  0
  102.4190   -5.3668   19.0776 N   0  0
   90.6638   -5.9916   13.1287 N   0  0
   92.5887   -5.4924   14.2414 N   0  0
   90.9189   -7.3514   16.9030 N   0  0
   89.6065   -7.2095   14.9241 N   0  0
   93.1145   -6.3374   17.0616 N   0  0
   98.2743   -5.6496   20.0950 C   0  0
  100.2989   -5.0732   20.2788 C   0  0
   99.6205   -4.5909   21.3450 C   0  0
  101.5698   -3.6781   22.2474 C   0  0
  101.6672   -4.8610   20.1769 C   0  0
   96.3476   -5.0590   18.4084 C   0  0
   95.5958   -4.0067   19.1984 C   0  0
   96.4116   -1.7025   17.5456 C   0  0
   97.4310   -2.5206   16.7643 C   0  0
   96.8893   -2.9496   15.4085 C   0  0
   97.0478   -1.8614   14.3486 C   0  0
   96.0786   -0.6934   14.5298 C   0  0
   94.6237   -1.1440   14.5840 C   0  0
   92.4012   -2.3769   13.2472 C   0  0
   91.8402   -2.9800   11.9674 C   0  0
   91.8878   -5.3967   13.0766 C   0  0
   89.6573   -6.1480   12.0822 C   0  0
   90.1348   -7.0981   11.0084 C   0  0
   89.4739   -6.5618    9.7731 C   0  0
   89.4230   -5.0780   10.1019 C   0  0
   88.2882   -4.3447    9.3968 C   0  0
   90.6036   -6.4793   14.3711 C   0  0
   91.7442   -6.1788   15.0345 C   0  0
   91.9221   -6.6194   16.3373 C   0  0
   89.7718   -7.6453   16.2084 C   0  0
   97.2538   -4.7165   22.2198 C   0  0
   96.7275   -3.2817   22.2348 C   0  0
   96.5515   -3.0227   23.7054 C   0  0
   97.5355   -3.9759   24.3388 C   0  0
   97.0580   -4.3998   25.7149 C   0  0
   96.7871   -6.4498   19.4886 S   0  0
   95.0412   -2.6970   18.1267 S   0  0
   94.0050   -1.6445   12.9861 S   0  0
   92.5742   -4.6129   11.6113 S   0  0
   94.2930   -3.2798   16.9608 O   0  0
   94.1106   -1.8127   18.9076 O   0  0
   94.9360   -2.6426   12.3559 O   0  0
   93.8743   -0.4443   12.0933 O   0  0
   89.3480   -4.9055   11.4989 O   0  0
   88.3330   -2.9761    9.6970 O   0  0
   86.0298   -3.7888   10.8024 O   0  0
   86.2060   -1.2301   10.2348 O   0  0
   84.9366   -0.3065    8.1428 O   0  0
   85.3101   -2.8860    8.1594 O   0  0
   87.3836   -1.1048    7.7246 O   0  0
   87.6344   -2.3706   12.2831 O   0  0
   88.1792   -7.0843    9.6469 O   0  0
   89.7373   -8.4085   11.2922 O   0  0
   97.6606   -5.1062   23.5125 O   0  0
   97.2940   -3.3789   26.6385 O   0  0
   94.7848   -2.6467   26.6779 O   0  0
   96.0982   -2.2366   28.8941 O   0  0
   98.7267   -2.1716   28.8675 O   0  0
   97.5858   -2.0509   31.2030 O   0  0
   97.6721   -4.3925   29.7695 O   0  0
   95.3591   -4.7727   28.0778 O   0  0
   96.8533   -1.7018   24.0481 O   0  0
   97.6491   -2.3881   21.6752 O   0  0
   87.0190   -2.6396   10.7330 P   0  0
   85.9345   -1.3639    8.5599 P   0  0
   95.8657   -3.2477   27.5466 P   0  0
   97.5500   -2.7092   29.6469 P   0  0
  1 11  1  0
  6 32  1  0
 11 41  1  0
 12  2  1  0
 13  3  1  0
 13  1  1  0
 14  4  1  0
 15  5  1  0
 15 12  1  0
 16 41  1  0
 16 17  1  0
 17 42  1  0
 18 19  1  0
 19 20  1  0
 20 21  1  0
 21 22  1  0
 22 23  1  0
 23 43  1  0
 24 25  1  0
 25 44  1  0
 26 44  1  0
 26  6  1  0
 27  6  1  0
 27 28  1  0
 27 49  1  0
 28 29  1  0
 28 58  1  0
 29 30  1  0
 29 57  1  0
 30 49  1  0
 30 31  1  0
 31 50  1  0
 32  9  1  0
 33  7  1  0
 33 34  1  0
 34 10  1  0
 35  8  1  0
 36  1  1  0
 36 37  1  0
 36 59  1  0
 37 38  1  0
 37 68  1  0
 38 39  1  0
 38 67  1  0
 39 59  1  0
 39 40  1  0
 40 60  1  0
 42 18  1  0
 43 24  1  0
 69 50  1  0
 69 52  1  0
 69 56  1  0
 70 52  1  0
 70 54  1  0
 70 55  1  0
 71 60  1  0
 71 62  1  0
 71 66  1  0
 72 62  1  0
 72 64  1  0
 72 65  1  0
 11  2  2  0
 12 13  2  0
 14  3  2  0
 15  4  2  0
 26  7  2  0
 32 33  2  0
 34  8  2  0
 35  9  2  0
 42 45  2  0
 42 46  2  0
 43 47  2  0
 43 48  2  0
 69 51  2  0
 70 53  2  0
 71 61  2  0
 72 63  2  0
M  END
> <Name>
CHEMBL610861 PubChem-46877374

> <rmsd>
0.510994971

$$$$
CHEMBL405285 PubChem-44413871
  SciTegic06052412183D

 93104  0  0  0  0            999 V2000
   95.8553   -2.7190   30.2729 N   0  0
   97.7307   -1.5687   29.3633 N   0  0
   94.7490   -4.5191   29.0805 N   0  0
   96.8133   -3.9744   26.9794 N   0  0
   98.4034   -2.3647   27.1692 N   0  0
   95.8072   -2.8275   20.4965 N   0  0
   95.7002   -1.9170   22.7372 N   0  0
   94.4327   -3.2392   24.2525 N   0  0
   94.5561   -4.6725   20.8917 N   0  0
   93.3567   -5.2984   23.5666 N   0  0
   92.2447   -5.1416   15.1929 N   0  0
   90.2231   -5.8500   16.3287 N   0  0
   89.3548   -7.9264   15.5454 N   0  0
   92.4018   -6.9185   13.7958 N   0  0
   90.4334   -9.1767   13.7693 N   0  0
   89.6286   -4.2623    8.6844 N   0  0
   87.8764   -4.2027    7.0256 N   0  0
   88.6509   -3.7551    4.8194 N   0  0
   91.3456   -3.8176    7.2801 N   0  0
   90.9908   -3.3824    4.3306 N   0  0
   96.8301   -1.7593   30.3765 C   0  0
   97.6232   -2.3562   28.2627 C   0  0
   96.6727   -3.3130   28.1433 C   0  0
   95.7536   -3.5132   29.1657 C   0  0
   97.8903   -3.3659   26.4057 C   0  0
   99.5920   -1.5653   26.8566 C   0  0
   99.3933   -0.8230   25.5410 C   0  0
   99.1680    0.1123   21.4063 C   0  0
   98.1744   -0.3328   20.3354 C   0  0
   96.8811    0.4655   20.2903 C   0  0
   95.9226   -0.5148   19.6802 C   0  0
   96.6348   -1.8564   19.7901 C   0  0
   95.4131   -2.8278   21.7750 C   0  0
   95.1996   -2.1323   23.9908 C   0  0
   94.1565   -4.1566   23.2799 C   0  0
   94.6696   -3.9301   22.0103 C   0  0
   95.2755   -3.9630   19.9756 C   0  0
   92.9275   -2.0105   18.4727 C   0  0
   92.0858   -3.1800   17.9496 C   0  0
   90.8770   -2.7800   17.1199 C   0  0
   91.3487   -2.9144   15.7006 C   0  0
   92.5428   -3.8558   15.8245 C   0  0
   91.2395   -5.9922   15.4421 C   0  0
   89.2740   -6.8351   16.3758 C   0  0
   90.3740   -8.0548   14.6467 C   0  0
   91.3340   -7.0521   14.6074 C   0  0
   92.9423   -5.7271   14.1811 C   0  0
   89.9949   -3.6851   13.0863 C   0  0
   88.9763   -4.2230   12.1054 C   0  0
   89.1943   -5.7134   11.9365 C   0  0
   89.2617   -5.9074   10.4446 C   0  0
   88.8710   -4.5582    9.8922 C   0  0
   89.1587   -4.1048    7.4456 C   0  0
   87.6251   -4.0206    5.6938 C   0  0
   89.9406   -3.6619    5.2511 C   0  0
   90.1827   -3.8401    6.6057 C   0  0
   90.9695   -4.0791    8.5651 C   0  0
   99.4778    0.6260   25.9154 C   0  0
  100.2302    0.5509   27.2290 C   0  0
  100.0028    1.7565   28.1310 C   0  0
  100.4433   -1.1478   24.6767 O   0  0
   98.8443   -2.7693   23.3576 O   0  0
   98.7337   -0.2446   22.6871 O   0  0
   97.8648   -1.6946   20.4510 O   0  0
   95.7412   -0.2043   18.3295 O   0  0
   93.9834    1.3327   17.1890 O   0  0
   93.3242   -1.1754   17.4211 O   0  0
   92.8831   -4.0483   17.1826 O   0  0
   91.7628   -1.6791   15.1861 O   0  0
   91.4565   -0.2785   13.0115 O   0  0
   89.8389   -2.3088   13.2509 O   0  0
   89.1239   -3.5812   10.8632 O   0  0
   88.3689   -6.8871    9.9952 O   0  0
   88.4958   -9.2370    8.8586 O   0  0
   90.7334   -8.3717    9.9062 O   0  0
   89.6918   -7.2839    7.5923 O   0  0
   88.1251   -6.4113   12.5030 O   0  0
   92.5655   -2.6107   12.7006 O   0  0
   90.4025   -1.4980   17.4186 O   0  0
   93.3498    0.5803   19.6025 O   0  0
   96.4324    0.7946   21.5727 O   0  0
  100.9368   -1.8867   22.0691 O   0  0
   98.1828    1.1172   26.1061 O   0  0
   99.8572   -0.6339   27.8788 O   0  0
  100.5056    2.9068   27.5163 O   0  0
  102.1900    4.8258   28.0481 O   0  0
  102.7023    2.5280   29.1654 O   0  0
  100.6030    4.1269   30.0067 O   0  0
   99.7132   -1.5423   23.1923 P   0  0
   94.0940    0.1569   18.1325 P   0  0
   91.3993   -1.6973   13.5259 P   0  0
   89.3028   -7.9791    9.0884 P   0  0
  101.5159    3.6248   28.6698 P   0  0
  5 22  1  0
  6 33  1  0
 11 43  1  0
 16 53  1  0
 21  2  1  0
 22 23  1  0
 23  4  1  0
 24  3  1  0
 24  1  1  0
 25  5  1  0
 26  5  1  0
 26 27  1  0
 26 84  1  0
 27 61  1  0
 27 58  1  0
 28 63  1  0
 29 28  1  0
 29 30  1  0
 29 64  1  0
 30 31  1  0
 30 81  1  0
 31 32  1  0
 31 65  1  0
 32  6  1  0
 32 64  1  0
 34  7  1  0
 35  8  1  0
 35 10  1  0
 36  9  1  0
 36 33  1  0
 37  6  1  0
 38 67  1  0
 39 38  1  0
 39 40  1  0
 39 68  1  0
 40 41  1  0
 40 79  1  0
 41 42  1  0
 41 69  1  0
 42 11  1  0
 42 68  1  0
 44 12  1  0
 45 13  1  0
 45 15  1  0
 46 14  1  0
 46 43  1  0
 47 11  1  0
 48 71  1  0
 49 48  1  0
 49 50  1  0
 49 72  1  0
 50 51  1  0
 50 77  1  0
 51 52  1  0
 51 73  1  0
 52 16  1  0
 52 72  1  0
 54 17  1  0
 55 18  1  0
 55 20  1  0
 56 19  1  0
 56 53  1  0
 57 16  1  0
 58 83  1  0
 58 59  1  0
 59 84  1  0
 59 60  1  0
 60 85  1  0
 89 61  1  0
 89 63  1  0
 89 82  1  0
 90 65  1  0
 90 67  1  0
 90 80  1  0
 91 69  1  0
 91 71  1  0
 91 78  1  0
 92 73  1  0
 92 75  1  0
 92 76  1  0
 93 85  1  0
 93 87  1  0
 93 88  1  0
 21  1  2  0
 22  2  2  0
 23 24  2  0
 25  4  2  0
 33  7  2  0
 34  8  2  0
 35 36  2  0
 37  9  2  0
 43 12  2  0
 44 13  2  0
 45 46  2  0
 47 14  2  0
 53 17  2  0
 54 18  2  0
 55 56  2  0
 57 19  2  0
 89 62  2  0
 90 66  2  0
 91 70  2  0
 92 74  2  0
 93 86  2  0
M  END
> <Name>
CHEMBL405285 PubChem-44413871

> <rmsd>
0.64713043

$$$$
CHEMBL2058484 PubChem-70690544
  SciTegic06052412183D

 93104  0  0  0  0            999 V2000
   85.8648  -13.9985    3.6705 P   0  0
   89.2054   -7.1519    7.4945 P   0  0
   90.0010   -1.8407   13.6829 P   0  0
   96.2767   -2.5201   18.5845 P   0  0
   84.7017  -14.9529    3.4835 O   0  0
   86.9152  -14.1226    2.3419 O   0  0
   85.2866  -12.4107    3.7932 O   0  0
   88.0147  -13.8230    5.2031 O   0  0
   90.1416  -10.8393    7.4144 O   0  0
   89.4867   -8.5148    6.5202 O   0  0
   88.5703   -6.0650    6.6580 O   0  0
   88.5055   -6.7246   10.0135 O   0  0
   87.3369   -3.1760   11.2050 O   0  0
   88.6447   -2.8165   13.3853 O   0  0
   90.8192   -1.6647   12.4194 O   0  0
   90.2749   -2.6732   16.1710 O   0  0
   93.0155   -0.5059   17.9434 O   0  0
   94.9022   -1.7759   19.2549 O   0  0
   96.2744   -4.0080   18.8648 O   0  0
   97.8275   -2.1192   20.6698 O   0  0
   96.0138    1.6106   22.3906 O   0  0
   94.8236    0.8671   24.5551 O   0  0
   96.2769   -1.8243   22.9177 O   0  0
   96.2959   -2.2745   16.9099 O   0  0
   91.5946   -3.0557   19.3924 O   0  0
   89.4781   -0.3229   14.2073 O   0  0
   88.3218   -6.1716   12.7524 O   0  0
   90.6970   -6.6005    8.0594 O   0  0
   87.5165  -10.9220    5.1094 O   0  0
   86.7603  -14.4387    5.1903 C   0  0
   87.9816  -12.9501    6.2876 C   0  0
   88.4972  -11.5811    5.8685 C   0  0
   88.7809  -10.7558    7.0951 C   0  0
   88.3802   -9.3578    6.6949 C   0  0
   88.1295   -7.5115    8.9230 C   0  0
   87.2960   -6.3465   10.5925 C   0  0
   87.5431   -5.4814   11.8160 C   0  0
   88.2577   -4.1980   11.4501 C   0  0
   89.1161   -3.9138   12.6552 C   0  0
   91.0178   -2.5848   14.9906 C   0  0
   91.1086   -3.3496   17.0649 C   0  0
   91.5742   -2.3854   18.1482 C   0  0
   92.9707   -1.8933   17.8084 C   0  0
   93.8226   -2.5662   18.8491 C   0  0
   97.7614   -1.7827   19.3168 C   0  0
   97.8222   -0.8981   21.3414 C   0  0
   96.5207   -0.7100   22.1050 C   0  0
   96.6352    0.5074   22.9952 C   0  0
   95.9554    0.0952   24.2750 C   0  0
   95.5485   -1.3386   24.0204 C   0  0
   96.6458   -3.2169   25.3197 C   0  0
   95.6903   -3.0501   27.2074 C   0  0
   95.2286   -3.1634   28.5099 C   0  0
   93.8003   -1.2966   28.0892 C   0  0
   95.2024   -2.0853   26.3990 C   0  0
   92.8394   -2.7630   19.9702 C   0  0
   93.4658   -3.7224   22.2011 C   0  0
   93.8510   -5.7530   21.7303 C   0  0
   94.1775   -7.1034   21.6954 C   0  0
   93.7502   -7.0778   19.3528 C   0  0
   93.4995   -5.1197   20.5936 C   0  0
   88.9860   -5.1803   13.4922 C   0  0
   91.4346   -5.7409   13.1723 C   0  0
   91.8918   -6.6453   15.0323 C   0  0
   92.4354   -7.3178   16.1146 C   0  0
   90.3106   -7.1750   17.1855 C   0  0
   90.6016   -6.2479   15.0701 C   0  0
   87.6750   -9.5481    5.3681 C   0  0
   85.3285   -9.1427    6.2281 C   0  0
   84.6643   -7.6076    4.9258 C   0  0
   83.9965   -6.6094    4.2283 C   0  0
   85.9452   -6.3368    2.8868 C   0  0
   85.9323   -7.9249    4.5886 C   0  0
   95.7910   -2.1662   25.2020 N   0  0
   96.6053   -3.7919   26.5536 N   0  0
   95.7167   -4.1712   29.3876 N   0  0
   94.2807   -2.2714   28.9266 N   0  0
   94.2636   -1.1966   26.8065 N   0  0
   93.2518   -3.8344   20.8662 N   0  0
   93.8421   -4.8993   22.7700 N   0  0
   94.5287   -7.8117   22.8785 N   0  0
   94.1189   -7.7405   20.4955 N   0  0
   93.4340   -5.7478   19.3932 N   0  0
   90.2905   -5.6681   13.9103 N   0  0
   92.4586   -6.3240   13.8567 N   0  0
   93.7870   -7.7549   16.1199 N   0  0
   91.6220   -7.5729   17.1808 N   0  0
   89.7818   -6.5030   16.1203 N   0  0
   86.3721   -8.8958    5.3926 N   0  0
   84.2465   -8.3601    5.9631 N   0  0
   82.6499   -6.2580    4.5300 N   0  0
   84.6568   -5.9952    3.2052 N   0  0
   86.6024   -7.3099    3.5866 N   0  0
  1  6  1  0
  1  7  1  0
  1 30  1  0
  2 10  1  0
  2 35  1  0
  2 28  1  0
  3 14  1  0
  3 40  1  0
  3 26  1  0
  4 18  1  0
  4 45  1  0
  4 24  1  0
 30  8  1  0
 31  8  1  0
 32 31  1  0
 32 33  1  0
 32 29  1  0
 33  9  1  0
 33 34  1  0
 34 10  1  0
 34 68  1  0
 35 12  1  0
 36 12  1  0
 37 36  1  0
 37 38  1  0
 37 27  1  0
 38 13  1  0
 38 39  1  0
 39 14  1  0
 39 62  1  0
 40 16  1  0
 41 16  1  0
 42 41  1  0
 42 43  1  0
 42 25  1  0
 43 17  1  0
 43 44  1  0
 44 18  1  0
 44 56  1  0
 45 20  1  0
 46 20  1  0
 47 46  1  0
 47 48  1  0
 47 23  1  0
 48 21  1  0
 48 49  1  0
 49 22  1  0
 49 50  1  0
 50 23  1  0
 50 74  1  0
 52 75  1  0
 53 76  1  0
 53 77  1  0
 54 78  1  0
 55 74  1  0
 55 52  1  0
 56 25  1  0
 56 79  1  0
 58 80  1  0
 59 81  1  0
 59 82  1  0
 60 83  1  0
 61 79  1  0
 61 58  1  0
 62 27  1  0
 62 84  1  0
 64 85  1  0
 65 86  1  0
 65 87  1  0
 66 88  1  0
 67 84  1  0
 67 64  1  0
 68 29  1  0
 68 89  1  0
 70 90  1  0
 71 91  1  0
 71 92  1  0
 72 93  1  0
 73 89  1  0
 73 70  1  0
 74 51  1  0
 79 57  1  0
 84 63  1  0
 89 69  1  0
  1  5  2  0
  2 11  2  0
  3 15  2  0
  4 19  2  0
 51 75  2  0
 52 53  2  0
 54 77  2  0
 55 78  2  0
 57 80  2  0
 58 59  2  0
 60 82  2  0
 61 83  2  0
 63 85  2  0
 64 65  2  0
 66 87  2  0
 67 88  2  0
 69 90  2  0
 70 71  2  0
 72 92  2  0
 73 93  2  0
M  END
> <Name>
CHEMBL2058484 PubChem-70690544

> <rmsd>
0.658276498

$$$$
CHEMBL1160500 PubChem-14539667
  SciTegic06052412183D

 77 80  0  0  0  0            999 V2000
   91.7047   -4.5109   20.7235 C   0  0
   91.9548   -3.3103   19.8259 C   0  0
   92.6704   -2.2019   20.5934 C   0  0
   94.1787   -2.4264   20.6341 C   0  0
   94.5437   -3.4923   21.6615 C   0  0
   96.7460   -2.4867   22.5073 C   0  0
   97.5455   -2.0887   23.7041 C   0  0
   98.3745   -0.8338   23.4511 C   0  0
   98.7779   -0.1902   24.7411 C   0  0
   99.6981   -0.8153   25.5932 C   0  0
  100.0493   -0.2151   26.8031 C   0  0
   99.4880    1.0213   27.1743 C   0  0
   98.5855    1.6519   26.3106 C   0  0
   98.2334    1.0516   25.0975 C   0  0
   98.2010   -3.8936   25.3252 C   0  0
   98.9617   -5.7240   26.8513 C   0  0
   99.2222   -4.8441   28.0610 C   0  0
   97.6014   -6.3828   26.9740 C   0  0
  100.0152   -6.8071   26.8178 C   0  0
   95.1358   -4.7381   21.0497 C   0  0
   95.4752   -6.1839   18.9960 C   0  0
   94.3218   -7.1183   19.1455 C   0  0
   91.9205   -7.6895   18.5827 C   0  0
   90.6751   -6.9274   18.1133 C   0  0
   90.5259   -6.8732   16.6225 C   0  0
   89.5286   -7.5090   15.8915 C   0  0
   90.7290   -6.4185   14.4824 C   0  0
   91.2484   -5.8666   13.3168 C   0  0
   92.3719   -5.0277   13.4371 C   0  0
   92.9397   -4.7656   14.7043 C   0  0
   92.3931   -5.3432   15.8668 C   0  0
   91.2836   -6.1716   15.7112 C   0  0
   92.0591   -9.0501   17.9498 C   0  0
   91.2182  -11.4150   17.7958 C   0  0
   91.8002  -12.1440   19.0054 C   0  0
   92.5348  -13.4019   18.5923 C   0  0
   93.9355  -13.0519   18.1290 C   0  0
   94.6609  -14.3186   17.7444 C   0  0
   89.9112  -12.0098   17.3437 C   0  0
   90.3336  -11.3930   14.9128 C   0  0
   90.9879  -12.5704   14.2045 C   0  0
   92.2116  -13.0090   14.9262 C   0  0
   89.5502  -10.6022   13.9097 C   0  0
   89.6673   -9.3230   11.6710 C   0  0
   89.2800  -10.3469   10.5965 C   0  0
   88.1628  -11.2615   10.9874 C   0  0
   86.8462  -10.7867   11.0712 C   0  0
   85.8094  -11.6580   11.4092 C   0  0
   86.0881  -13.0054   11.6549 C   0  0
   87.3993  -13.4850   11.5607 C   0  0
   88.4345  -12.6143   11.2199 C   0  0
   88.0969   -7.4082   11.1543 C   0  0
   95.4016   -2.9374   22.7015 N   0  0
   98.4007   -3.1938   24.1006 N   0  0
   95.1535   -4.9124   19.6278 N   0  0
   93.1186   -6.8781   18.4109 N   0  0
   89.6592   -7.2264   14.5709 N   0  0
   91.0194  -10.0161   18.1357 N   0  0
   89.4754  -11.8793   15.9870 N   0  0
   90.2579   -9.9560   12.8470 N   0  0
   88.5650   -8.4356   12.0274 N   0  0
   97.2710   -2.4959   21.3601 O   0  0
   99.7988    1.6348   28.3925 O   0  0
  100.2125   -0.4638   29.9324 O   0  0
  102.1765    0.7442   29.0730 O   0  0
  100.7863    1.8542   30.9666 O   0  0
   97.2676   -3.5514   26.1048 O   0  0
   99.0469   -4.9608   25.6460 O   0  0
   95.5814   -5.6499   21.8014 O   0  0
   94.4057   -8.0893   19.9472 O   0  0
   93.0726   -9.3350   17.2470 O   0  0
   89.1871  -12.6399   18.1594 O   0  0
   93.1987  -12.2335   15.0309 O   0  0
   92.2700  -14.2837   15.4681 O   0  0
   88.2966  -10.5194   13.9887 O   0  0
   88.6679   -7.1894   10.0552 O   0  0
  100.7729    0.8928   29.5896 S   0  0
  1  2  1  0
  2  3  1  0
  3  4  1  0
  5  4  1  0
  5 53  1  0
  5 20  1  0
  7  6  1  0
  7  8  1  0
  7 54  1  0
  8  9  1  0
 10 11  1  0
 12 63  1  0
 12 13  1  0
 14  9  1  0
 15 68  1  0
 16 68  1  0
 16 17  1  0
 16 18  1  0
 16 19  1  0
 20 55  1  0
 21 55  1  0
 21 22  1  0
 22 56  1  0
 23 56  1  0
 23 24  1  0
 23 33  1  0
 24 25  1  0
 26 57  1  0
 28 29  1  0
 30 31  1  0
 32 25  1  0
 32 27  1  0
 33 58  1  0
 34 58  1  0
 34 35  1  0
 34 39  1  0
 35 36  1  0
 36 37  1  0
 37 38  1  0
 39 59  1  0
 40 59  1  0
 40 41  1  0
 40 43  1  0
 41 42  1  0
 42 74  1  0
 43 60  1  0
 44 60  1  0
 44 45  1  0
 44 61  1  0
 45 46  1  0
 47 48  1  0
 49 50  1  0
 51 46  1  0
 53  6  1  0
 54 15  1  0
 57 27  1  0
 61 52  1  0
 77 63  1  0
 77 66  1  0
  6 62  2  0
  9 10  2  0
 11 12  2  0
 13 14  2  0
 15 67  2  0
 20 69  2  0
 22 70  2  0
 25 26  2  0
 27 28  2  0
 29 30  2  0
 31 32  2  0
 33 71  2  0
 39 72  2  0
 42 73  2  0
 43 75  2  0
 46 47  2  0
 48 49  2  0
 50 51  2  0
 52 76  2  0
 77 64  2  0
 77 65  2  0
M  END
> <Name>
CHEMBL1160500 PubChem-14539667

> <rmsd>
0.618773997

$$$$
CHEMBL610864 PubChem-46877377
  SciTegic06052412183D

107121  0  0  0  0            999 V2000
   87.9253   -4.8120    6.1163 N   0  0
   91.2977   -4.5033   13.9333 N   0  0
   92.4941   -6.3411   13.3505 N   0  0
   90.6213   -7.8210   16.1138 N   0  0
   90.0872   -5.5271   15.7584 N   0  0
   92.2331   -8.9841   14.7289 N   0  0
   95.3873   -1.7172   20.0966 N   0  0
   94.2858   -3.5781   20.7803 N   0  0
   97.6210   -4.4993   21.9506 N   0  0
   97.5726   -2.3684   20.8923 N   0  0
   95.6220   -5.8490   22.1954 N   0  0
   96.2462    0.0111   25.8665 N   0  0
   96.8045   -1.5564   24.3295 N   0  0
   97.1569   -3.6348   27.3160 N   0  0
   96.4879   -1.4086   27.8179 N   0  0
   97.5558   -4.3707   25.0418 N   0  0
   83.8888   -5.1739    1.8746 N   0  0
   83.7074   -5.6759   -0.3280 N   0  0
   82.2395   -2.3322   -0.4470 N   0  0
   82.8946   -2.9720    1.7498 N   0  0
   82.5301   -3.8061   -2.3476 N   0  0
   87.9247   -4.0274    3.9927 N   0  0
   91.5394   -4.3293    4.4149 N   0  0
   90.3281   -4.9866    6.3569 N   0  0
   90.4220   -3.5660    2.4068 N   0  0
   87.4454   -5.2040    7.4359 C   0  0
   87.8970   -6.6127    7.7715 C   0  0
   88.5796   -6.4625    9.1085 C   0  0
   88.2103   -5.0714    9.5477 C   0  0
   89.3696   -4.4674   10.3195 C   0  0
   91.0288   -2.1732   12.8838 C   0  0
   90.8146   -3.1208   14.0742 C   0  0
   90.9536   -5.5339   14.7160 C   0  0
   91.6601   -6.6274   14.3648 C   0  0
   92.2569   -5.0202   13.1163 C   0  0
   91.5030   -7.8131   15.0718 C   0  0
   89.9219   -6.6899   16.4604 C   0  0
   92.3359   -1.6305   14.7905 C   0  0
   91.8963   -1.0769   13.4548 C   0  0
   92.5167   -0.5235   15.8198 C   0  0
   94.5507    0.1071   18.6532 C   0  0
   95.6955   -0.4203   19.4897 C   0  0
   96.2424   -2.5421   20.7050 C   0  0
   95.5864   -3.6507   21.1122 C   0  0
   94.1937   -2.3726   20.1507 C   0  0
   96.2785   -4.6657   21.7560 C   0  0
   98.2643   -3.3634   21.5268 C   0  0
   94.8259    1.2768   20.7184 C   0  0
   93.7994    0.9501   19.6494 C   0  0
   94.2855    0.9467   22.1018 C   0  0
   94.3913    1.5798   26.1121 C   0  0
   95.8390    1.3001   26.4292 C   0  0
   96.5405   -1.1391   26.4891 C   0  0
   96.8669   -2.0738   25.5707 C   0  0
   96.4192   -0.2684   24.5492 C   0  0
   97.1996   -3.3598   25.9777 C   0  0
   96.8043   -2.6735   28.2283 C   0  0
   94.9231    2.0591   28.3661 C   0  0
   93.9480    2.4326   27.2692 C   0  0
   94.2123    1.2215   29.4187 C   0  0
   85.3520   -8.1047    5.0804 C   0  0
   84.9214   -6.6668    4.8587 C   0  0
   84.2448   -5.2416    3.2892 C   0  0
   83.3135   -4.1527    1.2295 C   0  0
   83.2043   -4.4528   -0.0818 C   0  0
   84.1255   -6.0947    0.9014 C   0  0
   82.6555   -3.5286   -0.9579 C   0  0
   82.3475   -2.0561    0.8951 C   0  0
   83.0078   -5.4691    4.1364 C   0  0
   83.4485   -6.5048    5.1440 C   0  0
   89.1862   -4.7123    5.6783 C   0  0
   89.1843   -4.2513    4.4091 C   0  0
   87.1725   -4.3776    5.0756 C   0  0
   90.3844   -4.0525    3.7425 C   0  0
   91.5171   -4.7916    5.7080 C   0  0
   87.9347   -4.3063    8.4027 O   0  0
   89.1330   -3.1156   10.5745 O   0  0
   90.4712   -0.8684   10.3665 O   0  0
   91.6186   -2.7860   11.7692 O   0  0
   91.3596   -2.5398   15.2351 O   0  0
   93.0107   -0.8098   12.6566 O   0  0
   93.4919    0.3833   15.3963 O   0  0
   96.0935    0.2948   15.2844 O   0  0
   95.0774    0.8895   17.6168 O   0  0
   95.9943    0.5188   20.4946 O   0  0
   93.2987    2.1219   19.0756 O   0  0
   93.1761    1.7414   22.4009 O   0  0
   92.7884    0.0934   24.4095 O   0  0
   94.2832    2.2454   24.8849 O   0  0
   96.0024    1.3252   27.8275 O   0  0
   94.0964    3.7928   26.9796 O   0  0
   95.0286    1.0851   30.5407 O   0  0
   91.5461    2.3868   24.5295 O   0  0
   94.9856   -1.7005   16.5345 O   0  0
   91.4194   -2.8889    9.0183 O   0  0
   88.1274   -7.3969   10.0433 O   0  0
   86.7836   -7.4579    7.8482 O   0  0
   86.2031   -9.8970    7.0883 O   0  0
   86.7440   -8.1752    5.1700 O   0  0
   85.1506   -6.2862    3.5275 O   0  0
   83.2646   -6.0743    6.4600 O   0  0
   82.6306   -4.2694    4.7477 O   0  0
   88.6991   -9.2026    6.8219 O   0  0
   90.6497   -2.3705   10.4359 P   0  0
   94.9320   -0.0369   16.1963 P   0  0
   92.9492    1.5630   24.0731 P   0  0
   87.0795   -8.7153    6.7417 P   0  0
  1 71  1  0
  2 33  1  0
  7 43  1  0
 12 53  1  0
 17 64  1  0
 26  1  1  0
 26 27  1  0
 26 76  1  0
 27 28  1  0
 27 97  1  0
 28 29  1  0
 28 96  1  0
 29 76  1  0
 29 30  1  0
 30 77  1  0
 31 79  1  0
 31 32  1  0
 32  2  1  0
 32 80  1  0
 33  5  1  0
 34  3  1  0
 34 36  1  0
 35  2  1  0
 36  6  1  0
 37  4  1  0
 38 80  1  0
 38 39  1  0
 38 40  1  0
 39 81  1  0
 39 31  1  0
 40 82  1  0
 41 84  1  0
 41 42  1  0
 42  7  1  0
 42 85  1  0
 43 10  1  0
 44  8  1  0
 44 46  1  0
 45  7  1  0
 46 11  1  0
 47  9  1  0
 48 85  1  0
 48 49  1  0
 48 50  1  0
 49 86  1  0
 49 41  1  0
 50 87  1  0
 51 89  1  0
 51 52  1  0
 52 12  1  0
 52 90  1  0
 53 15  1  0
 54 13  1  0
 54 56  1  0
 55 12  1  0
 56 16  1  0
 57 14  1  0
 58 90  1  0
 58 59  1  0
 58 60  1  0
 59 91  1  0
 59 51  1  0
 60 92  1  0
 61 99  1  0
 62 61  1  0
 62100  1  0
 63100  1  0
 63 17  1  0
 63 69  1  0
 64 20  1  0
 65 18  1  0
 65 67  1  0
 66 17  1  0
 67 21  1  0
 68 19  1  0
 69 70  1  0
 69102  1  0
 70101  1  0
 70 62  1  0
 71 24  1  0
 72 22  1  0
 72 74  1  0
 73  1  1  0
 74 25  1  0
 75 23  1  0
104 77  1  0
104 79  1  0
104 95  1  0
105 82  1  0
105 84  1  0
105 94  1  0
106 87  1  0
106 89  1  0
106 93  1  0
107 97  1  0
107 99  1  0
107103  1  0
 33 34  2  0
 35  3  2  0
 36  4  2  0
 37  5  2  0
 43 44  2  0
 45  8  2  0
 46  9  2  0
 47 10  2  0
 53 54  2  0
 55 13  2  0
 56 14  2  0
 57 15  2  0
 64 65  2  0
 66 18  2  0
 67 19  2  0
 68 20  2  0
 71 72  2  0
 73 22  2  0
 74 23  2  0
 75 24  2  0
104 78  2  0
105 83  2  0
106 88  2  0
107 98  2  0
M  END
> <Name>
CHEMBL610864 PubChem-46877377

> <rmsd>
0.527376533

$$$$
CHEMBL271601 4887196 ZINC000004887196
  SciTegic06052412183D

 40 44  0  0  0  0            999 V2000
   89.0977   -8.8374   12.3323 O   0  0
   87.6120   -6.9066   12.6633 O   0  0
   89.0516   -6.9947   10.5089 O   0  0
   98.0166   -1.3737   18.1490 O   0  0
   99.5716   -3.3854   26.7518 O   0  0
   97.1680   -3.7535   27.0298 O   0  0
   98.0489   -1.3222   27.2125 O   0  0
   94.3012   -4.4358   18.8523 O   0  0
   88.9512   -7.3532   12.1475 S   0  0
   98.2070   -2.8218   26.4716 S   0  0
   90.2336   -6.5150   13.0220 C   0  0
   91.1091   -5.7064   12.2974 C   0  0
   92.1394   -5.0218   12.9368 C   0  0
   92.3277   -5.1233   14.3165 C   0  0
   94.8078   -3.6175   16.6369 C   0  0
   95.6011   -2.8325   15.7907 C   0  0
   96.6635   -2.0927   16.3085 C   0  0
   96.9485   -2.1260   17.6751 C   0  0
   96.1575   -2.9149   18.5424 C   0  0
   97.5495   -2.4339   21.9484 C   0  0
   96.7480   -3.2705   22.7365 C   0  0
   96.9641   -3.3742   24.1101 C   0  0
   97.9846   -2.6469   24.7298 C   0  0
   98.8022   -1.7989   23.9538 C   0  0
   99.8363   -1.0532   24.5407 C   0  0
  100.6403   -0.2168   23.7638 C   0  0
  100.4210   -0.1150   22.3893 C   0  0
   99.3974   -0.8494   21.7876 C   0  0
   98.5809   -1.6939   22.5548 C   0  0
   95.0890   -3.6566   18.0104 C   0  0
   91.4480   -5.9418   15.0748 C   0  0
   91.5853   -6.0836   16.4652 C   0  0
   90.7149   -6.8921   17.1968 C   0  0
   89.6877   -7.5752   16.5487 C   0  0
   89.5297   -7.4499   15.1686 C   0  0
   90.3964   -6.6405   14.4170 C   0  0
   93.4193   -4.3757   14.8798 N   0  0
   93.7121   -4.3776   16.1180 N   0  0
   96.4020   -2.9901   19.9554 N   0  0
   97.3256   -2.3350   20.5360 N   0  0
  9  3  1  0
  9 11  1  0
 10 23  1  0
 10  7  1  0
 12 13  1  0
 14 37  1  0
 14 31  1  0
 15 38  1  0
 16 17  1  0
 18  4  1  0
 18 19  1  0
 19 39  1  0
 20 40  1  0
 21 22  1  0
 23 24  1  0
 25 26  1  0
 27 28  1  0
 29 20  1  0
 29 24  1  0
 30  8  1  0
 30 15  1  0
 32 33  1  0
 34 35  1  0
 36 11  1  0
 36 31  1  0
  9  1  2  0
  9  2  2  0
 10  5  2  0
 10  6  2  0
 11 12  2  0
 13 14  2  0
 15 16  2  0
 17 18  2  0
 19 30  2  0
 20 21  2  0
 22 23  2  0
 24 25  2  0
 26 27  2  0
 28 29  2  0
 31 32  2  0
 33 34  2  0
 35 36  2  0
 37 38  2  0
 39 40  2  0
M  END
> <Name>
CHEMBL271601 4887196 ZINC000004887196

> <rmsd>
0.653749526

$$$$
CHEMBL2057589 PubChem-70690507
  SciTegic06052412183D

 92103  0  0  0  0            999 V2000
   98.1691   -3.9569   25.8989 P   0  0
   94.9920   -2.1157   18.2087 P   0  0
   93.7900   -7.6255   11.4925 P   0  0
   87.8585   -6.8687    6.5250 P   0  0
   99.4964   -3.2552   26.0951 O   0  0
   98.3887   -5.6355   26.0055 O   0  0
   97.0713   -3.4571   27.0968 O   0  0
   98.3964   -3.9846   23.2661 O   0  0
   97.5866   -2.3419   20.5739 O   0  0
   94.9031   -3.3830   19.3359 O   0  0
   93.5986   -1.8083   17.7142 O   0  0
   95.5084   -3.6225   16.0972 O   0  0
   97.1906   -5.7762   13.1461 O   0  0
   94.2080   -6.2258   12.3602 O   0  0
   94.9938   -8.1030   10.7147 O   0  0
   92.5410   -7.2700   10.4028 O   0  0
   88.4460   -6.8056   10.1668 O   0  0
   88.3019   -5.8139    7.7831 O   0  0
   87.8165   -8.2896    7.0397 O   0  0
   88.7378   -7.6323    4.1360 O   0  0
   89.4102   -3.9914    1.8088 O   0  0
   88.6181   -5.9216   -0.8963 O   0  0
   89.9546   -7.3509    1.4418 O   0  0
   86.3255   -6.4306    5.9633 O   0  0
   91.3309   -5.0760    9.3246 O   0  0
   93.2797   -8.8526   12.5384 O   0  0
   94.9417   -6.2991   15.8114 O   0  0
   95.6088   -0.7471   18.9722 O   0  0
   97.3160   -5.7977   20.3463 O   0  0
   97.5082   -3.5441   24.2502 C   0  0
   97.6966   -4.9682   22.5645 C   0  0
   97.7295   -4.6623   21.0773 C   0  0
   96.8233   -3.4940   20.7635 C   0  0
   96.1960   -3.9024   19.4688 C   0  0
   96.0451   -2.5314   16.7802 C   0  0
   96.5684   -4.5279   16.0143 C   0  0
   96.1462   -5.7989   15.2880 C   0  0
   95.9780   -5.5715   13.8043 C   0  0
   95.0130   -6.6435   13.4303 C   0  0
   91.5666   -6.6168   11.1624 C   0  0
   90.6128   -5.8379   10.2626 C   0  0
   89.6860   -6.7811    9.5271 C   0  0
   89.6021   -6.1965    8.1422 C   0  0
   89.0563   -6.7387    5.1571 C   0  0
   88.2628   -6.8471    3.0782 C   0  0
   89.4203   -6.3247    2.2353 C   0  0
   88.9453   -5.2158    1.3250 C   0  0
   89.6034   -5.5171    0.0071 C   0  0
   90.5252   -6.6730    0.3573 C   0  0
   90.3474   -8.8665   -0.9259 C   0  0
   91.4510   -8.4015   -2.6808 C   0  0
   92.1435   -8.3820   -3.8839 C   0  0
   92.7437   -6.1270   -3.4193 C   0  0
   91.4426   -7.3133   -1.8881 C   0  0
   90.5096   -4.9876    8.1925 C   0  0
   91.4267   -3.8551    6.1419 C   0  0
   92.7630   -5.3177    5.3833 C   0  0
   93.6715   -6.0911    4.6721 C   0  0
   93.3201   -7.8330    6.2698 C   0  0
   92.1850   -5.8118    6.4983 C   0  0
   94.2241   -6.8428   14.7276 C   0  0
   92.5424   -4.9629   14.4529 C   0  0
   90.7121   -6.0015   14.7419 C   0  0
   89.4040   -6.4070   14.9532 C   0  0
   90.2316   -8.5868   15.4252 C   0  0
   91.7229   -6.8885   14.8638 C   0  0
   96.2015   -5.4212   19.5690 C   0  0
   94.8290   -6.5114   21.4099 C   0  0
   92.9240   -6.6735   20.4896 C   0  0
   91.6084   -6.9195   20.1255 C   0  0
   92.0776   -5.9325   18.0080 C   0  0
   93.7665   -6.0863   19.6149 C   0  0
   90.7486   -7.5726   -0.7747 N   0  0
   90.7728   -9.4085   -2.1009 N   0  0
   92.1844   -9.5183   -4.7385 N   0  0
   92.7756   -7.2280   -4.2389 N   0  0
   92.0784   -6.1617   -2.2218 N   0  0
   91.3304   -4.9106    6.9922 N   0  0
   92.3043   -4.0794    5.1211 N   0  0
   94.3217   -5.5940    3.5046 N   0  0
   93.9357   -7.3474    5.1404 N   0  0
   92.4342   -7.0581    6.9666 N   0  0
   92.8862   -6.2575   14.6751 N   0  0
   91.1926   -4.7699   14.4722 N   0  0
   88.3108   -5.5060   14.8287 N   0  0
   89.1898   -7.7068   15.2960 N   0  0
   91.5216   -8.1807   15.2149 N   0  0
   94.9728   -5.9513   20.1756 N   0  0
   93.5634   -6.9646   21.6387 N   0  0
   90.7054   -7.5640   21.0147 N   0  0
   91.2059   -6.5372   18.8763 N   0  0
   93.3772   -5.7054   18.3723 N   0  0
  1  6  1  0
  1  7  1  0
  1 30  1  0
  2 10  1  0
  2 35  1  0
  2 28  1  0
  3 14  1  0
  3 16  1  0
  3 26  1  0
  4 18  1  0
  4 44  1  0
  4 24  1  0
 30  8  1  0
 31  8  1  0
 32 31  1  0
 32 33  1  0
 32 29  1  0
 33  9  1  0
 33 34  1  0
 34 10  1  0
 34 67  1  0
 35 12  1  0
 36 12  1  0
 37 36  1  0
 37 38  1  0
 37 27  1  0
 38 13  1  0
 38 39  1  0
 39 14  1  0
 39 61  1  0
 40 16  1  0
 41 40  1  0
 41 42  1  0
 41 25  1  0
 42 17  1  0
 42 43  1  0
 43 18  1  0
 43 55  1  0
 44 20  1  0
 45 20  1  0
 46 45  1  0
 46 47  1  0
 46 23  1  0
 47 21  1  0
 47 48  1  0
 48 22  1  0
 48 49  1  0
 49 23  1  0
 49 73  1  0
 51 74  1  0
 52 75  1  0
 52 76  1  0
 53 77  1  0
 54 73  1  0
 54 51  1  0
 55 25  1  0
 55 78  1  0
 57 79  1  0
 58 80  1  0
 58 81  1  0
 59 82  1  0
 60 78  1  0
 60 57  1  0
 61 27  1  0
 61 83  1  0
 63 84  1  0
 64 85  1  0
 64 86  1  0
 65 87  1  0
 66 83  1  0
 66 63  1  0
 67 29  1  0
 67 88  1  0
 69 89  1  0
 70 90  1  0
 70 91  1  0
 71 92  1  0
 72 88  1  0
 72 69  1  0
 73 50  1  0
 78 56  1  0
 83 62  1  0
 88 68  1  0
  1  5  2  0
  2 11  2  0
  3 15  2  0
  4 19  2  0
 50 74  2  0
 51 52  2  0
 53 76  2  0
 54 77  2  0
 56 79  2  0
 57 58  2  0
 59 81  2  0
 60 82  2  0
 62 84  2  0
 63 64  2  0
 65 86  2  0
 66 87  2  0
 68 89  2  0
 69 70  2  0
 71 91  2  0
 72 92  2  0
M  END
> <Name>
CHEMBL2057589 PubChem-70690507

> <rmsd>
0.553514063

$$$$
CHEMBL608085 PubChem-46876544
  SciTegic06052412183D

 40 45  0  0  0  0            999 V2000
   91.1672   -5.6240   13.3901 N   0  0
   92.7535   -5.6927   15.0019 N   0  0
   90.0693   -7.3321   16.8617 N   0  0
   89.4194   -6.7181   14.6572 N   0  0
   92.3116   -6.8743   17.7092 N   0  0
   91.8370   -5.2291   20.0993 N   0  0
   95.1453   -2.5909   22.0025 N   0  0
   93.3694   -2.7159   20.6067 N   0  0
   95.1534   -4.9167   22.6707 N   0  0
   93.4336   -6.2138   21.6611 N   0  0
   90.5303   -5.3892   12.1001 C   0  0
   90.3386   -6.6990   11.3591 C   0  0
   88.8430   -6.8122   11.2353 C   0  0
   88.3700   -5.3983   11.4435 C   0  0
   86.9947   -5.4058   12.0852 C   0  0
   90.6651   -6.2140   14.4814 C   0  0
   91.6112   -6.2520   15.4433 C   0  0
   92.4452   -5.3180   13.7274 C   0  0
   91.3252   -6.8215   16.6757 C   0  0
   89.1249   -7.2830   15.8672 C   0  0
   92.0420   -7.4263   19.0297 C   0  0
   91.1508   -6.4860   19.8309 C   0  0
   92.9633   -5.1276   20.9744 C   0  0
   93.6179   -3.9182   21.1591 C   0  0
   94.6790   -3.8451   21.9900 C   0  0
   96.2878   -2.0465   22.7257 C   0  0
   97.5751   -2.6044   22.1767 C   0  0
   98.4777   -2.6173   23.3780 C   0  0
   97.5076   -2.6494   24.5411 C   0  0
   97.5454   -4.0179   25.1985 C   0  0
   94.3342   -1.9183   21.1480 C   0  0
   94.5156   -6.1141   22.4995 C   0  0
   89.2889   -4.7461   12.2825 O   0  0
   86.5013   -4.1035   12.1621 O   0  0
   88.4505   -7.2809    9.9784 O   0  0
   90.9492   -6.6009   10.1056 O   0  0
   96.1989   -2.3712   24.0914 O   0  0
   96.7653   -4.0100   26.3546 O   0  0
   99.2337   -1.4439   23.4554 O   0  0
   98.0678   -1.7889   21.1547 O   0  0
  1 16  1  0
  6 23  1  0
  7 31  1  0
 11  1  1  0
 11 12  1  0
 11 33  1  0
 12 13  1  0
 12 36  1  0
 13 14  1  0
 13 35  1  0
 14 33  1  0
 14 15  1  0
 15 34  1  0
 16  4  1  0
 17  2  1  0
 17 19  1  0
 18  1  1  0
 19  5  1  0
 20  3  1  0
 21  5  1  0
 21 22  1  0
 22  6  1  0
 23 24  1  0
 24  8  1  0
 25  7  1  0
 25  9  1  0
 26  7  1  0
 26 27  1  0
 26 37  1  0
 27 28  1  0
 27 40  1  0
 28 29  1  0
 28 39  1  0
 29 37  1  0
 29 30  1  0
 30 38  1  0
 32 10  1  0
 16 17  2  0
 18  2  2  0
 19  3  2  0
 20  4  2  0
 23 10  2  0
 24 25  2  0
 31  8  2  0
 32  9  2  0
M  END
> <Name>
CHEMBL608085 PubChem-46876544

> <rmsd>
0.586304486

$$$$
CHEMBL2059737 PubChem-11686851
  SciTegic06052412183D

 92103  0  0  0  0            999 V2000
   96.9369   -2.4151   24.0470 C   0  0
   97.2901   -2.2130   25.5110 C   0  0
   98.7843   -2.1097   25.7069 C   0  0
   99.0164   -2.8057   27.0292 C   0  0
   97.6379   -3.2965   27.4290 C   0  0
   97.2047   -5.7968   27.4578 C   0  0
   98.1002   -6.3632   29.2977 C   0  0
   98.5965   -6.9927   30.4306 C   0  0
   99.4047   -4.8737   31.1669 C   0  0
   98.2673   -5.0329   29.1375 C   0  0
   95.3873   -3.7126   21.5657 C   0  0
   94.9612   -4.5509   19.5391 C   0  0
   95.5239   -4.4633   18.1464 C   0  0
   94.5379   -5.2691   17.3301 C   0  0
   95.1418   -6.6257   17.0094 C   0  0
   95.7803   -9.0769   14.6396 C   0  0
   94.1953   -8.4498   13.1606 C   0  0
   94.3873   -9.2709   11.9151 C   0  0
   93.2048   -8.8528   11.0617 C   0  0
   92.1735   -9.9651   11.0496 C   0  0
   88.4472  -10.2751    9.4642 C   0  0
   88.7379   -8.2090    8.6104 C   0  0
   88.5200   -6.7304    8.7967 C   0  0
   87.4696   -6.4114    7.7644 C   0  0
   87.6069   -4.9695    7.3117 C   0  0
   88.2545   -8.4468    7.1872 C   0  0
   90.4617   -8.0923    5.9995 C   0  0
   90.7804  -10.0072    5.1348 C   0  0
   91.2376  -11.1504    4.4961 C   0  0
   89.2588  -12.2694    5.2303 C   0  0
   89.5957  -10.0316    5.7864 C   0  0
   93.4389   -7.2537   12.6396 C   0  0
   92.7306   -5.3556   14.1177 C   0  0
   91.2307   -6.2513   15.3256 C   0  0
   90.2614   -6.5893   16.2589 C   0  0
   90.2813   -8.8055   15.3719 C   0  0
   91.6863   -7.1828   14.4605 C   0  0
   93.4972   -4.8440   19.3047 C   0  0
   91.9953   -5.4485   21.2276 C   0  0
   92.5951   -7.4381   21.6604 C   0  0
   92.8015   -8.7187   22.1533 C   0  0
   94.5023   -9.0075   20.5098 C   0  0
   93.3415   -6.9877   20.6252 C   0  0
   99.1672   -0.7654   25.7349 O   0  0
   99.5076   -1.9316   28.0018 O   0  0
   96.8089   -3.2718   26.2930 O   0  0
   97.4518   -3.6249   23.5752 O   0  0
   97.7354   -2.3437   21.2871 O   0  0
   97.9393   -4.9440   21.2026 O   0  0
   95.1193   -3.3491   20.2407 O   0  0
   94.1779   -7.4379   16.4065 O   0  0
   95.8196   -9.2932   17.3593 O   0  0
   93.6412  -10.1307   16.2011 O   0  0
   95.3989   -8.0482   13.7633 O   0  0
   91.1628   -9.6640   10.1328 O   0  0
   90.1193  -12.0074   10.7109 O   0  0
   89.3201   -9.9980   12.1858 O   0  0
   87.9698   -8.9573    9.5223 O   0  0
   86.6140   -4.6763    6.3721 O   0  0
   86.8839   -2.0774    6.6272 O   0  0
   86.1444   -2.9435    4.2750 O   0  0
   88.7170   -3.2764    5.2012 O   0  0
   87.6510   -7.2795    6.6770 O   0  0
   88.0548   -6.4292   10.0807 O   0  0
   92.6216   -7.6760   11.5794 O   0  0
   95.5613   -8.8990   11.2567 O   0  0
   93.3362   -5.4413   18.0450 O   0  0
   95.5176   -3.1450   17.6825 O   0  0
   97.7152   -4.6497   27.9810 N   0  0
   97.4279   -6.8817   28.2525 N   0  0
   98.4348   -8.3907   30.6369 N   0  0
   99.2442   -6.2235   31.3559 N   0  0
   98.9124   -4.2647   30.0451 N   0  0
   89.3780   -8.8381    6.3441 N   0  0
   91.3584   -8.7937    5.2468 N   0  0
   92.4809  -11.1687    3.8053 N   0  0
   90.4545  -12.2692    4.5547 N   0  0
   88.8187  -11.1404    5.8623 N   0  0
   92.6369   -6.6383   13.6915 N   0  0
   91.8661   -5.0802   15.1348 N   0  0
   89.7762   -5.6352   17.1975 N   0  0
   89.7973   -7.8748   16.2588 N   0  0
   91.2442   -8.4642   14.4620 N   0  0
   92.9813   -5.7316   20.3381 N   0  0
   91.7366   -6.4877   22.0724 N   0  0
   92.0492   -9.2298   23.2455 N   0  0
   93.7604   -9.4835   21.5583 N   0  0
   94.2993   -7.7409   20.0320 N   0  0
   97.1754   -3.6069   21.9008 P   0  0
   94.8772   -8.9769   16.2193 P   0  0
   89.8005  -10.5314   10.6534 P   0  0
   87.0866   -3.2147    5.6539 P   0  0
  1 47  1  0
  2  1  1  0
  2  3  1  0
  2 46  1  0
  3 44  1  0
  3  4  1  0
  4 45  1  0
  4  5  1  0
  5 46  1  0
  5 69  1  0
  7 70  1  0
  8 71  1  0
  8 72  1  0
  9 73  1  0
 10 69  1  0
 10  7  1  0
 11 50  1  0
 12 50  1  0
 12 13  1  0
 13 14  1  0
 13 68  1  0
 14 15  1  0
 14 67  1  0
 15 51  1  0
 16 54  1  0
 17 54  1  0
 17 18  1  0
 18 19  1  0
 18 66  1  0
 19 20  1  0
 19 65  1  0
 20 55  1  0
 21 58  1  0
 22 58  1  0
 22 23  1  0
 23 24  1  0
 23 64  1  0
 24 25  1  0
 24 63  1  0
 25 59  1  0
 26 63  1  0
 26 74  1  0
 26 22  1  0
 28 75  1  0
 29 76  1  0
 29 77  1  0
 30 78  1  0
 31 74  1  0
 31 28  1  0
 32 65  1  0
 32 79  1  0
 32 17  1  0
 34 80  1  0
 35 81  1  0
 35 82  1  0
 36 83  1  0
 37 79  1  0
 37 34  1  0
 38 67  1  0
 38 84  1  0
 38 12  1  0
 40 85  1  0
 41 86  1  0
 41 87  1  0
 42 88  1  0
 43 84  1  0
 43 40  1  0
 69  6  1  0
 74 27  1  0
 79 33  1  0
 84 39  1  0
 89 47  1  0
 89 49  1  0
 89 11  1  0
 90 51  1  0
 90 53  1  0
 90 16  1  0
 91 55  1  0
 91 57  1  0
 91 21  1  0
 92 59  1  0
 92 61  1  0
 92 62  1  0
  6 70  2  0
  7  8  2  0
  9 72  2  0
 10 73  2  0
 27 75  2  0
 28 29  2  0
 30 77  2  0
 31 78  2  0
 33 80  2  0
 34 35  2  0
 36 82  2  0
 37 83  2  0
 39 85  2  0
 40 41  2  0
 42 87  2  0
 43 88  2  0
 89 48  2  0
 90 52  2  0
 91 56  2  0
 92 60  2  0
M  END
> <Name>
CHEMBL2059737 PubChem-11686851

> <rmsd>
0.655390024

$$$$
CHEMBL413086 PubChem-16186238
  SciTegic06052412183D

104116  0  0  0  0            999 V2000
   89.7693   -6.7141   11.4269 C   0  0
   90.1052   -6.5727   12.7749 C   0  0
   91.3088   -5.8020   13.1286 C   0  0
   93.5364   -4.7374   13.3371 C   0  0
   92.5559   -4.2885   14.2254 C   0  0
   92.8081   -3.2689   15.2476 C   0  0
   91.6757   -1.9844   17.1851 C   0  0
   92.6442   -0.8380   17.3592 C   0  0
   94.5696    0.4871   16.3487 C   0  0
   94.8480    1.3430   15.3462 C   0  0
   93.8845    1.4918   14.2050 C   0  0
   96.3408    3.0438   14.3464 C   0  0
   95.4967    0.2912   17.4968 C   0  0
   97.1817    0.3988   19.3286 C   0  0
   96.4955   -0.8087   19.1965 C   0  0
   96.7630   -1.9712   20.0542 C   0  0
   96.2604   -4.3983   20.5671 C   0  0
   96.3898   -5.4141   19.4806 C   0  0
   97.0006   -7.2969   17.9882 C   0  0
   95.6603   -6.8978   17.9593 C   0  0
   94.6013   -7.6297   17.2586 C   0  0
   92.1434   -8.0039   17.6629 C   0  0
   90.9046   -7.5411   16.9517 C   0  0
   88.6217   -6.9249   16.1882 C   0  0
   89.5700   -7.1273   15.1844 C   0  0
   89.2226   -7.0856   13.7509 C   0  0
   87.6918   -7.7798   12.0490 C   0  0
   88.5726   -7.3217   11.0515 C   0  0
   86.3987   -8.4172   11.7295 C   0  0
   84.7375   -9.2851   10.4837 C   0  0
   84.1701   -9.5073   11.7406 C   0  0
   84.0693   -9.6730    9.2347 C   0  0
   84.1757   -9.8018    6.6693 C   0  0
   84.1645  -11.2917    6.4373 C   0  0
   83.9272  -13.2770    4.9198 C   0  0
   83.5814  -13.6256    3.4719 C   0  0
   84.5316  -12.9420    2.4823 C   0  0
   84.8496  -11.4793    2.8294 C   0  0
   83.9695  -10.9326    3.9508 C   0  0
   82.7994   -9.1913    6.4537 C   0  0
   91.9652   -8.0323   19.1809 C   0  0
   93.1839   -8.8907   21.1664 C   0  0
   92.6717   -7.8957   22.1398 C   0  0
   92.7251   -6.5026   22.0195 C   0  0
   92.2467   -5.9889   23.2329 C   0  0
   91.9592   -7.0822   24.0231 C   0  0
   91.5096   -6.9574   25.3359 C   0  0
   91.3465   -5.6636   25.8518 C   0  0
   91.6394   -4.5362   25.0608 C   0  0
   92.1033   -4.6813   23.7416 C   0  0
   92.3812   -3.4569   22.9352 C   0  0
   94.8334   -2.9428   23.2319 C   0  0
   95.4116   -4.3154   22.9724 C   0  0
   95.1838   -4.8636   21.5603 C   0  0
   93.2531   -5.7822   20.8116 C   0  0
   95.9620   -5.2871   24.9027 C   0  0
   95.3331   -5.0026   26.2609 C   0  0
   96.3863   -5.0297   27.3651 C   0  0
   97.2589   -6.3151   27.2524 C   0  0
   97.6688   -6.5539   25.7700 C   0  0
   98.7941   -5.6446   25.2692 C   0  0
   99.2339   -7.5046   27.9266 C   0  0
   97.9950   -6.4276   29.5320 C   0  0
   95.6232   -4.9851   28.6772 C   0  0
   91.7629   -3.0635   18.2708 C   0  0
   93.1543   -3.6514   18.3797 C   0  0
   92.7993   -5.9022   12.3659 S   0  0
   96.5744    1.4151   18.1322 S   0  0
   97.7711   -6.2828   19.0999 S   0  0
   89.4194   -7.1747   17.6498 S   0  0
   85.2721   -8.9197   12.8677 S   0  0
   91.3340   -4.8748   14.1067 N   0  0
   91.6982   -2.5875   15.8502 N   0  0
   93.3899   -0.3299   16.2474 N   0  0
   95.5749   -0.8627   18.1935 N   0  0
   95.9113   -3.1136   19.9761 N   0  0
   93.2616   -7.1371   17.3231 N   0  0
   88.0499   -7.6529   13.3560 N   0  0
   85.9612   -8.6866   10.4817 N   0  0
   84.7199   -9.4369    7.9780 N   0  0
   84.0319  -11.8260    5.1089 N   0  0
   90.8164   -7.4804   15.6078 N   0  0
   92.2173   -8.2238   23.3686 N   0  0
   98.4364   -6.3043   28.1515 N   0  0
   95.3388   -5.8630   18.7736 N   0  0
   93.9906   -3.0095   15.5980 O   0  0
   92.7392   -0.2776   18.4845 O   0  0
   96.0327    2.0887   15.3509 O   0  0
   97.7463   -1.9670   20.8438 O   0  0
   94.8495   -8.7212   16.6794 O   0  0
   88.2733   -7.4464    9.7003 O   0  0
   82.9295  -10.2132    9.2723 O   0  0
   84.2690  -12.0794    7.4178 O   0  0
   85.7195  -13.6658    2.3900 O   0  0
   93.0331   -8.7522   19.7818 O   0  0
   93.7992   -9.8995   21.6015 O   0  0
   92.0695   -9.4966   23.8726 O   0  0
   93.4674   -2.6924   23.4593 O   0  0
   95.6364   -1.9795   23.3219 O   0  0
   93.8910   -4.5707   21.1042 O   0  0
   94.9678   -5.2363   23.9248 O   0  0
   96.5556   -6.5655   24.8990 O   0  0
   97.1884   -3.8898   27.2677 O   0  0
   91.3706   -2.5481   19.5057 O   0  0
  2  3  1  0
  3 67  1  0
  4 67  1  0
  5 72  1  0
  5  6  1  0
  6 73  1  0
  7 73  1  0
  7  8  1  0
  7 65  1  0
  8 74  1  0
  9 13  1  0
 10 88  1  0
 11 10  1  0
 12 88  1  0
 13 68  1  0
 14 68  1  0
 15 75  1  0
 15 16  1  0
 16 76  1  0
 17 76  1  0
 17 18  1  0
 18 69  1  0
 19 69  1  0
 20 21  1  0
 20 85  1  0
 21 77  1  0
 22 77  1  0
 22 23  1  0
 22 41  1  0
 23 70  1  0
 24 70  1  0
 25 26  1  0
 25 82  1  0
 26  2  1  0
 27 78  1  0
 27 29  1  0
 28 91  1  0
 28  1  1  0
 29 71  1  0
 30 79  1  0
 30 32  1  0
 31 71  1  0
 32 80  1  0
 33 80  1  0
 33 34  1  0
 33 40  1  0
 34 81  1  0
 35 81  1  0
 35 36  1  0
 36 37  1  0
 37 38  1  0
 37 94  1  0
 38 39  1  0
 39 81  1  0
 41 95  1  0
 42 95  1  0
 42 43  1  0
 44 45  1  0
 46 83  1  0
 46 47  1  0
 48 49  1  0
 50 45  1  0
 51 50  1  0
 51 98  1  0
 52 98  1  0
 53 52  1  0
 53 54  1  0
 53101  1  0
 54100  1  0
 54 17  1  0
 55100  1  0
 55 44  1  0
 56101  1  0
 56 57  1  0
 56102  1  0
 57 58  1  0
 58 59  1  0
 58103  1  0
 58 64  1  0
 59 60  1  0
 59 84  1  0
 60102  1  0
 60 61  1  0
 62 84  1  0
 63 84  1  0
 65 66  1  0
 65104  1  0
 74  9  1  0
 83 97  1  0
 83 43  1  0
  1  2  2  0
  3 72  2  0
  4  5  2  0
  6 86  2  0
  8 87  2  0
  9 10  2  0
 13 75  2  0
 14 15  2  0
 16 89  2  0
 18 85  2  0
 19 20  2  0
 21 90  2  0
 23 82  2  0
 24 25  2  0
 26 78  2  0
 27 28  2  0
 29 79  2  0
 30 31  2  0
 32 92  2  0
 34 93  2  0
 42 96  2  0
 43 44  2  0
 45 46  2  0
 47 48  2  0
 49 50  2  0
 52 99  2  0
M  END
> <Name>
CHEMBL413086 PubChem-16186238

> <rmsd>
0.596663117

$$$$
CHEMBL610862
  SciTegic06052412183D

 72 77  0  0  0  0            999 V2000
   91.1344   -5.7641   13.1612 N   0  0
   91.5508   -4.4041   14.9516 N   0  0
   90.0392   -7.5199   14.4323 N   0  0
   89.8673   -7.0834   16.7631 N   0  0
   90.7388   -5.0470   17.7460 N   0  0
   98.9909   -0.7949   19.7819 N   0  0
  100.9267   -1.0876   18.6016 N   0  0
  101.1274    2.5347   18.9735 N   0  0
   99.1781    1.6187   19.9802 N   0  0
   99.5354    4.0061   20.0445 N   0  0
   91.6988   -4.6049   13.6145 C   0  0
   90.8764   -5.4966   15.3405 C   0  0
   90.6408   -6.3122   14.2876 C   0  0
   89.6438   -7.9004   15.6850 C   0  0
   90.4871   -5.8757   16.6168 C   0  0
   91.1359   -2.4869   12.2151 C   0  0
   91.3984   -1.0048   12.4019 C   0  0
   92.5683   -0.9546   15.1028 C   0  0
   93.7878   -0.1610   14.6667 C   0  0
   94.7755   -1.0581   13.9375 C   0  0
   95.4794   -1.9963   14.9090 C   0  0
   96.5808   -1.2723   15.6720 C   0  0
   97.8153   -1.0883   14.8007 C   0  0
   99.6075   -2.9217   16.2352 C   0  0
   98.6030   -3.1556   17.3473 C   0  0
   99.8177   -1.6683   19.1356 C   0  0
   99.6073    0.3879   19.6029 C   0  0
  100.7598    0.2066   18.9178 C   0  0
  101.5507    1.2958   18.5852 C   0  0
   99.9538    2.7001   19.6643 C   0  0
   97.6630   -1.0779   20.3555 C   0  0
   97.9800   -1.9068   22.4202 C   0  0
   97.4781   -0.4996   22.6576 C   0  0
   97.1819    0.0211   21.2840 C   0  0
   97.3031   -2.8741   23.3748 C   0  0
   91.2613   -6.3688   11.8232 C   0  0
   90.1944   -7.4207   11.5616 C   0  0
   89.2887   -6.7559   10.5670 C   0  0
   90.1948   -5.7493    9.9105 C   0  0
   89.4127   -4.5274    9.4488 C   0  0
   92.6234   -3.4546   12.5965 S   0  0
   91.1551   -0.5239   14.1055 S   0  0
   98.7792   -2.5914   14.6941 S   0  0
   99.4746   -3.4182   18.9208 S   0  0
   90.9396    0.9616   14.1638 O   0  0
   89.9380   -1.2149   14.6559 O   0  0
   97.9000   -3.7566   14.3330 O   0  0
   99.8188   -2.4175   13.6241 O   0  0
  102.7321    1.1402   17.8718 O   0  0
   97.6936   -2.2747   21.0933 O   0  0
   98.4924    0.2634   23.2369 O   0  0
   97.8108   -2.7007   24.6654 O   0  0
   97.4612   -3.7236   27.0528 O   0  0
   97.3912   -5.4471   25.0485 O   0  0
   99.4099   -7.0642   24.6746 O   0  0
   99.5401   -5.5981   26.8217 O   0  0
   99.9268   -4.5407   24.2983 O   0  0
   95.3622   -3.6408   25.5223 O   0  0
   91.1957   -5.3731   10.8238 O   0  0
   88.8135   -3.8837   10.5369 O   0  0
   86.5528   -2.7258   11.1169 O   0  0
   87.4695   -2.3350    8.6825 O   0  0
   85.6885   -3.4482    7.0949 O   0  0
   86.0236   -0.8775    6.8442 O   0  0
   84.7157   -1.9485    9.0103 O   0  0
   86.4145   -4.7973    9.5251 O   0  0
   88.7882   -7.6596    9.6240 O   0  0
   90.8030   -8.5541   11.0148 O   0  0
   97.0351   -3.8777   25.6099 P   0  0
   99.0702   -5.6883   25.1991 P   0  0
   87.2809   -3.4162    9.9859 P   0  0
   85.9654   -2.1981    7.8980 P   0  0
  1 11  1  0
  6 27  1  0
 11 41  1  0
 12  2  1  0
 13  3  1  0
 13  1  1  0
 14  4  1  0
 15  5  1  0
 15 12  1  0
 16 41  1  0
 16 17  1  0
 17 42  1  0
 18 19  1  0
 19 20  1  0
 20 21  1  0
 21 22  1  0
 22 23  1  0
 23 43  1  0
 24 25  1  0
 25 44  1  0
 26 44  1  0
 26  6  1  0
 27  9  1  0
 28  7  1  0
 28 29  1  0
 29 49  1  0
 30  8  1  0
 30 10  1  0
 31  6  1  0
 31 50  1  0
 32 50  1  0
 32 33  1  0
 32 35  1  0
 33 34  1  0
 33 51  1  0
 34 31  1  0
 35 52  1  0
 36  1  1  0
 36 37  1  0
 36 59  1  0
 37 38  1  0
 37 68  1  0
 38 39  1  0
 38 67  1  0
 39 59  1  0
 39 40  1  0
 40 60  1  0
 42 18  1  0
 43 24  1  0
 69 52  1  0
 69 54  1  0
 69 58  1  0
 70 54  1  0
 70 56  1  0
 70 57  1  0
 71 60  1  0
 71 62  1  0
 71 66  1  0
 72 62  1  0
 72 64  1  0
 72 65  1  0
 11  2  2  0
 12 13  2  0
 14  3  2  0
 15  4  2  0
 26  7  2  0
 27 28  2  0
 29  8  2  0
 30  9  2  0
 42 45  2  0
 42 46  2  0
 43 47  2  0
 43 48  2  0
 69 53  2  0
 70 55  2  0
 71 61  2  0
 72 63  2  0
M  END
> <Name>
CHEMBL610862

> <rmsd>
0.637668848

$$$$
CHEMBL384725 PubChem-44340640
  SciTegic06052412183D

 68 76  0  0  0  0            999 V2000
   94.7444   -4.8345   23.6572 N   0  0
   92.8408   -4.1357   24.6746 N   0  0
   93.9161   -6.5440   27.2010 N   0  0
   95.4099   -6.4204   25.3540 N   0  0
   91.9133   -5.1835   27.3188 N   0  0
   92.5979   -5.1032   14.4962 N   0  0
   92.0732   -7.0396   13.4481 N   0  0
   90.2778   -7.6500   16.5706 N   0  0
   91.3927   -5.5485   16.5454 N   0  0
   90.3762   -9.1711   14.6824 N   0  0
   90.0877   -4.6335    8.7918 N   0  0
   92.1841   -4.8079    7.9583 N   0  0
   90.3863   -4.6585    4.7808 N   0  0
   88.9378   -4.5342    6.6682 N   0  0
   92.7895   -4.8486    5.0248 N   0  0
   94.5830   -5.4967   24.8064 C   0  0
   93.4521   -5.0792   25.4131 C   0  0
   93.6655   -4.0068   23.5965 C   0  0
   93.0940   -5.6053   26.6454 C   0  0
   95.0625   -6.9506   26.5661 C   0  0
   95.9359   -7.9694   27.2026 C   0  0
   95.8717   -4.9466   22.7281 C   0  0
   95.6805   -4.0879   21.4934 C   0  0
   96.4726   -2.8500   21.8208 C   0  0
   97.4140   -3.2863   22.9222 C   0  0
   97.4009   -2.2932   24.0793 C   0  0
   93.3704   -3.1832   18.1837 C   0  0
   93.4328   -2.7385   16.7331 C   0  0
   93.1720   -3.7840   14.7359 C   0  0
   91.8211   -5.8437   15.2951 C   0  0
   91.5096   -6.9982   14.6692 C   0  0
   92.7393   -5.8522   13.3730 C   0  0
   90.7171   -7.9385   15.3090 C   0  0
   90.6086   -6.4683   17.1858 C   0  0
   92.0763   -2.7371   14.8046 C   0  0
   92.0511   -2.3727   16.2609 C   0  0
   89.7365   -3.4670   12.8664 C   0  0
   88.6695   -3.8213   11.8456 C   0  0
   88.9678   -4.5671    9.7223 C   0  0
   90.0388   -4.5947    7.4587 C   0  0
   91.2904   -4.6926    6.9611 C   0  0
   91.4086   -4.7612    9.0796 C   0  0
   91.4882   -4.7264    5.5863 C   0  0
   89.1233   -4.5637    5.3112 C   0  0
   88.9129   -5.8111   10.5734 C   0  0
   88.3857   -5.3108   11.8899 C   0  0
   97.0660   -4.5735   23.3771 O   0  0
   96.1133   -2.1808   24.6147 O   0  0
   96.9195   -3.6273   26.6653 O   0  0
   97.2727   -1.0378   26.8585 O   0  0
   94.7744   -2.1874   27.0263 O   0  0
   97.1945   -2.3774   20.7214 O   0  0
   96.2065   -4.7593   20.3832 O   0  0
   95.3930   -5.5944   18.0453 O   0  0
   94.6526   -3.1757   18.7377 O   0  0
   93.9216   -3.7886   15.9314 O   0  0
   91.8052   -1.0114   16.4576 O   0  0
   92.4416   -1.6392   14.0151 O   0  0
   92.1427   -2.8279   11.6886 O   0  0
   89.9003   -2.0773   12.9198 O   0  0
   89.0982   -3.4436   10.5572 O   0  0
   87.0045   -5.5056   11.9865 O   0  0
   88.0655   -6.7584    9.9882 O   0  0
   91.6332   -0.2806   11.7675 O   0  0
   93.5684   -5.4694   19.9145 O   0  0
   96.2963   -2.2995   26.2972 P   0  0
   94.9572   -4.7707   19.2358 P   0  0
   91.5393   -1.7605   12.5790 P   0  0
  1 16  1  0
  6 30  1  0
 11 40  1  0
 16  4  1  0
 17  2  1  0
 17 19  1  0
 18  1  1  0
 19  5  1  0
 20  3  1  0
 21 20  1  0
 22  1  1  0
 22 23  1  0
 22 47  1  0
 23 24  1  0
 23 53  1  0
 24 25  1  0
 24 52  1  0
 25 47  1  0
 25 26  1  0
 26 48  1  0
 27 55  1  0
 28 27  1  0
 28 56  1  0
 29 56  1  0
 29  6  1  0
 29 35  1  0
 30  9  1  0
 31  7  1  0
 31 33  1  0
 32  6  1  0
 33 10  1  0
 34  8  1  0
 35 36  1  0
 35 58  1  0
 36 57  1  0
 36 28  1  0
 37 60  1  0
 38 37  1  0
 38 61  1  0
 39 61  1  0
 39 11  1  0
 39 45  1  0
 40 14  1  0
 41 12  1  0
 41 43  1  0
 42 11  1  0
 43 15  1  0
 44 13  1  0
 45 46  1  0
 45 63  1  0
 46 62  1  0
 46 38  1  0
 66 48  1  0
 66 50  1  0
 66 51  1  0
 67 53  1  0
 67 55  1  0
 67 65  1  0
 68 58  1  0
 68 60  1  0
 68 64  1  0
 16 17  2  0
 18  2  2  0
 19  3  2  0
 20  4  2  0
 30 31  2  0
 32  7  2  0
 33  8  2  0
 34  9  2  0
 40 41  2  0
 42 12  2  0
 43 13  2  0
 44 14  2  0
 66 49  2  0
 67 54  2  0
 68 59  2  0
M  END
> <Name>
CHEMBL384725 PubChem-44340640

> <rmsd>
0.630925119

$$$$
CHEMBL218620 PubChem-44395783
  SciTegic06052412183D

 88 97  0  0  0  0            999 V2000
   92.4948   -4.6921   12.8282 C   0  0
   92.6879   -5.0248   14.9651 C   0  0
   91.5997   -5.7894   14.5288 C   0  0
   91.4941   -5.5622   13.1666 C   0  0
   90.6110   -6.0474   12.2004 C   0  0
   90.8050   -5.5962   10.8721 C   0  0
   92.6440   -4.2776   11.4984 C   0  0
   89.9509   -6.0458    9.8639 C   0  0
   88.9052   -6.9391   10.1569 C   0  0
   88.7166   -7.3864   11.4759 C   0  0
   89.5734   -6.9361   12.4929 C   0  0
   87.4214   -8.7802   13.0590 C   0  0
   88.1553   -6.9867    7.7971 C   0  0
   90.7241   -6.6414   15.3405 C   0  0
   91.0228   -7.9964   15.5047 C   0  0
   90.1886   -8.8206   16.2772 C   0  0
   89.0465   -8.2760   16.8862 C   0  0
   88.7541   -6.9117   16.7184 C   0  0
   89.5882   -6.0999   15.9479 C   0  0
   87.0467   -8.6328   18.3015 C   0  0
   91.6168  -10.8033   15.8801 C   0  0
   93.1896   -4.9503   16.3579 C   0  0
   93.0959   -5.8055   18.7443 C   0  0
   92.4607   -4.6089   19.4307 C   0  0
   92.0750   -5.6293   21.7140 C   0  0
   92.3973   -5.6800   23.1580 C   0  0
   92.2426   -6.1115   25.2779 C   0  0
   93.4344   -5.4571   25.1108 C   0  0
   93.5500   -5.1659   23.7607 C   0  0
   94.6276   -4.4041   23.1183 C   0  0
   94.4270   -3.0635   22.7754 C   0  0
   95.4465   -2.3259   22.1535 C   0  0
   96.6823   -2.9387   21.8893 C   0  0
   96.8806   -4.2843   22.2452 C   0  0
   95.8567   -5.0125   22.8533 C   0  0
   98.9714   -2.7394   20.9695 C   0  0
   94.0291   -0.3020   22.0066 C   0  0
   94.2464   -5.1617   26.2078 C   0  0
   93.7833   -5.5824   27.4783 C   0  0
   91.8285   -6.5008   26.5583 C   0  0
   94.5534   -5.3181   28.6114 C   0  0
   95.7798   -4.6398   28.5008 C   0  0
   96.2344   -4.2200   27.2388 C   0  0
   95.4621   -4.4834   26.0974 C   0  0
   97.9829   -3.0808   25.9046 C   0  0
   96.1716   -4.7541   30.9424 C   0  0
   90.2178   -6.6975   23.9085 C   0  0
   89.2368   -5.5884   24.2936 C   0  0
   89.4275   -4.3750   23.4442 C   0  0
   90.1375   -3.2835   23.9516 C   0  0
   90.4027   -2.1662   23.1446 C   0  0
   89.9439   -2.1456   21.8187 C   0  0
   89.2184   -3.2398   21.3181 C   0  0
   88.9650   -4.3503   22.1254 C   0  0
   89.8296   -0.9506   19.6547 C   0  0
   91.6614   -1.0340   24.9512 C   0  0
   94.4121   -3.5036   13.9252 C   0  0
   95.6543   -4.3487   13.6955 C   0  0
   96.8795   -3.5068   13.7820 C   0  0
   97.2630   -2.9351   15.0011 C   0  0
   98.4252   -2.1504   15.0858 C   0  0
   99.2069   -1.9436   13.9368 C   0  0
   98.8187   -2.5267   12.7184 C   0  0
   97.6622   -3.3054   12.6429 C   0  0
  101.1961   -0.8809   12.9119 C   0  0
   98.0828   -1.7312   17.5011 C   0  0
   93.2254   -4.3515   13.9120 N   0  0
   92.6890   -5.8507   17.3496 N   0  0
   92.7074   -4.6711   20.8626 N   0  0
   91.5988   -6.2526   24.0987 N   0  0
   91.7954   -4.7446   10.5784 O   0  0
   93.5566   -3.4793   11.1610 O   0  0
   87.6729   -8.2763   11.7538 O   0  0
   88.0431   -7.3954    9.1537 O   0  0
   88.2201   -9.1049   17.6522 O   0  0
   90.4776  -10.1773   16.4559 O   0  0
   94.0616   -4.0975   16.6732 O   0  0
   91.2324   -6.4331   21.2317 O   0  0
   97.6951   -2.1945   21.2747 O   0  0
   95.2554   -0.9876   21.7944 O   0  0
   92.6158   -6.2249   27.6012 O   0  0
   90.7419   -7.1112   26.7370 O   0  0
   97.4536   -3.5404   27.1414 O   0  0
   96.5607   -4.3716   29.6300 O   0  0
   90.2244   -1.0341   21.0167 O   0  0
   91.1244   -1.0733   23.6368 O   0  0
  100.3600   -1.1563   14.0289 O   0  0
   98.8193   -1.5689   16.2966 O   0  0
  1 67  1  0
  2 22  1  0
  3  4  1  0
  3 14  1  0
  4  5  1  0
  6 71  1  0
  6  8  1  0
  7 71  1  0
  7  1  1  0
  9 10  1  0
  9 74  1  0
 10 73  1  0
 11  5  1  0
 12 73  1  0
 13 74  1  0
 15 16  1  0
 16 76  1  0
 17 18  1  0
 17 75  1  0
 19 14  1  0
 20 75  1  0
 21 76  1  0
 22 68  1  0
 23 68  1  0
 23 24  1  0
 24 69  1  0
 25 26  1  0
 26 70  1  0
 28 29  1  0
 28 38  1  0
 29 30  1  0
 31 32  1  0
 32 80  1  0
 33 34  1  0
 33 79  1  0
 35 30  1  0
 36 79  1  0
 37 80  1  0
 39 81  1  0
 39 41  1  0
 40 81  1  0
 40 27  1  0
 42 43  1  0
 42 84  1  0
 43 83  1  0
 44 38  1  0
 45 83  1  0
 46 84  1  0
 47 70  1  0
 47 48  1  0
 48 49  1  0
 50 51  1  0
 51 86  1  0
 52 53  1  0
 52 85  1  0
 54 49  1  0
 55 85  1  0
 56 86  1  0
 57 67  1  0
 57 58  1  0
 58 59  1  0
 60 61  1  0
 61 88  1  0
 62 63  1  0
 62 87  1  0
 64 59  1  0
 65 87  1  0
 66 88  1  0
 67  2  1  0
 69 25  1  0
 70 27  1  0
  2  3  2  0
  4  1  2  0
  5  6  2  0
  7 72  2  0
  8  9  2  0
 10 11  2  0
 14 15  2  0
 16 17  2  0
 18 19  2  0
 22 77  2  0
 25 78  2  0
 27 28  2  0
 29 26  2  0
 30 31  2  0
 32 33  2  0
 34 35  2  0
 38 39  2  0
 40 82  2  0
 41 42  2  0
 43 44  2  0
 49 50  2  0
 51 52  2  0
 53 54  2  0
 59 60  2  0
 61 62  2  0
 63 64  2  0
M  END
> <Name>
CHEMBL218620 PubChem-44395783

> <rmsd>
0.599405348

$$$$
CHEMBL318806 PubChem-10144606
  SciTegic06052412183D

 42 46  0  0  0  0            999 V2000
   96.5124   -3.9528   27.4506 C   0  0
   97.8422   -2.7014   26.0061 C   0  0
   97.1934   -4.8671   25.4165 C   0  0
   96.5441   -5.0331   24.0839 C   0  0
   95.6593   -6.0926   23.8725 C   0  0
   95.0534   -6.2587   22.6249 C   0  0
   95.3335   -5.3660   21.5868 C   0  0
   96.2247   -4.2984   21.7821 C   0  0
   97.4790   -1.7352   19.6795 C   0  0
   98.3102   -0.4973   19.4645 C   0  0
   99.5857   -0.5644   20.2851 C   0  0
   98.6953   -0.3440   18.0025 C   0  0
   97.5170    0.7216   19.8926 C   0  0
   96.5873   -2.2811   18.7634 C   0  0
   96.0276   -3.3321   19.4705 C   0  0
   94.4999   -4.2499   17.6458 C   0  0
   92.8478   -5.3969   16.0459 C   0  0
   93.3730   -4.8040   14.8930 C   0  0
   92.8055   -5.0444   13.6439 C   0  0
   91.6940   -5.8775   13.5049 C   0  0
   89.8483   -6.3963   11.8998 C   0  0
   89.7047   -6.5857   10.4025 C   0  0
   88.0618   -6.3887    8.6870 C   0  0
   88.6539   -7.3588    7.6551 C   0  0
   88.6150   -9.1026    9.0671 C   0  0
   88.0195   -8.2795   10.2161 C   0  0
   91.1575   -6.5079   14.6566 C   0  0
   90.0791   -7.4020   14.5719 C   0  0
   89.5711   -8.0252   15.7128 C   0  0
   90.1395   -7.7689   16.9600 C   0  0
   91.2201   -6.8934   17.0674 C   0  0
   91.7431   -6.2606   15.9293 C   0  0
   96.8284   -4.1449   23.0401 C   0  0
   96.7361   -3.6406   26.0507 N   0  0
   96.5379   -3.3769   20.7205 N   0  0
   97.4162   -2.3969   20.8531 N   0  0
   95.0147   -4.2220   18.9816 N   0  0
   93.4370   -5.1593   17.3365 N   0  0
   88.3090   -6.8442   10.0629 N   0  0
   94.9739   -3.4879   16.7604 O   0  0
   91.1913   -6.0486   12.2058 O   0  0
   88.1102   -8.6398    7.8427 O   0  0
  1 34  1  0
  2 34  1  0
  3 34  1  0
  3  4  1  0
  5  6  1  0
  7  8  1  0
  8 35  1  0
  9 14  1  0
 10  9  1  0
 10 11  1  0
 10 12  1  0
 10 13  1  0
 15 37  1  0
 15 35  1  0
 16 38  1  0
 18 19  1  0
 20 41  1  0
 20 27  1  0
 21 41  1  0
 21 22  1  0
 22 39  1  0
 23 39  1  0
 23 24  1  0
 24 42  1  0
 25 42  1  0
 25 26  1  0
 26 39  1  0
 28 29  1  0
 30 31  1  0
 32 17  1  0
 32 27  1  0
 33  4  1  0
 35 36  1  0
 37 16  1  0
 38 17  1  0
  4  5  2  0
  6  7  2  0
  8 33  2  0
  9 36  2  0
 14 15  2  0
 16 40  2  0
 17 18  2  0
 19 20  2  0
 27 28  2  0
 29 30  2  0
 31 32  2  0
M  END
> <Name>
CHEMBL318806 PubChem-10144606

> <rmsd>
0.633839428

$$$$
CHEMBL2059743 PubChem-70694795
  SciTegic06052412183D

 91102  0  0  0  0            999 V2000
   83.7814   -5.9325    3.0034 P   0  0
   88.7905   -1.4998    8.0873 P   0  0
   89.0447   -2.3071   16.1262 P   0  0
   93.2561   -1.1353   23.3165 P   0  0
   84.7697   -5.0218    2.2979 O   0  0
   82.2052   -5.4193    2.6825 O   0  0
   83.9722   -7.5164    2.4407 O   0  0
   83.9456   -4.6124    5.2873 O   0  0
   86.2989   -2.6522    5.7327 O   0  0
   87.1578   -1.9756    8.1338 O   0  0
   88.8742   -0.1718    7.3717 O   0  0
   89.3431   -1.2905    9.6767 O   0  0
   88.1476   -1.0774   12.6141 O   0  0
   88.3148   -2.6700   14.6327 O   0  0
   90.0283   -1.1653   15.9694 O   0  0
   87.8452   -1.8470   17.2289 O   0  0
   90.2953   -3.5268   18.0880 O   0  0
   90.8169   -2.1605   20.7194 O   0  0
   92.6325   -2.4958   22.5149 O   0  0
   92.3997   -0.8331   24.5311 O   0  0
   94.8571   -1.4323   23.7999 O   0  0
   94.5566   -5.6258   24.6832 O   0  0
   96.9647   -6.5018   24.3044 O   0  0
   97.0625   -3.1604   24.4375 O   0  0
   93.2271    0.2151   22.2969 O   0  0
   93.4350   -4.2671   19.6869 O   0  0
   89.3555   -4.2256   11.7744 O   0  0
   89.7574   -2.6240    7.2539 O   0  0
   84.9986   -4.0125    8.7021 O   0  0
   84.0805   -5.9104    4.7926 C   0  0
   83.9883   -4.7826    6.6726 C   0  0
   84.8649   -3.7231    7.3289 C   0  0
   86.2389   -3.6559    6.7058 C   0  0
   87.1260   -3.3552    7.8805 C   0  0
   89.7289   -2.5562   10.1218 C   0  0
   88.9629   -2.9393   11.3779 C   0  0
   89.2218   -1.9650   12.5014 C   0  0
   89.3624   -2.8433   13.7198 C   0  0
   89.9168   -3.7643   16.7698 C   0  0
   91.6635   -3.8031   18.1368 C   0  0
   92.1134   -3.8167   19.5886 C   0  0
   92.0745   -2.4266   20.1701 C   0  0
   93.1619   -2.4583   21.2184 C   0  0
   94.7795   -2.4795   24.7234 C   0  0
   95.7343   -3.5856   24.3139 C   0  0
   95.5457   -4.7841   25.2021 C   0  0
   96.9072   -5.4301   25.2002 C   0  0
   97.8178   -4.3239   24.6914 C   0  0
  100.2011   -4.2251   25.4854 C   0  0
   99.9945   -3.4519   27.4522 C   0  0
  100.1412   -2.9627   28.7435 C   0  0
   97.7714   -2.6847   28.8327 C   0  0
   98.7642   -3.5434   26.9036 C   0  0
   93.8842   -3.7642   20.9244 C   0  0
   96.0607   -2.4448   20.9887 C   0  0
   97.4912   -4.0125   21.0023 C   0  0
   98.6097   -4.8308   21.0737 C   0  0
   97.1508   -6.7168   20.9815 C   0  0
   96.2591   -4.5605   20.9258 C   0  0
   89.3241   -4.2542   13.1791 C   0  0
   91.7772   -4.7430   13.5004 C   0  0
   91.7059   -6.4409   14.7695 C   0  0
   91.9366   -7.5055   15.6266 C   0  0
   89.5724   -7.7866   15.8027 C   0  0
   90.4409   -6.0880   14.4643 C   0  0
   86.3791   -4.0412    9.0039 C   0  0
   88.1376   -5.7781    9.4653 C   0  0
   87.0655   -7.5993    9.2963 C   0  0
   86.6206   -8.9114    9.2378 C   0  0
   84.4493   -8.0762    8.7169 C   0  0
   86.2044   -6.5808    9.0777 C   0  0
   98.8701   -4.0352   25.6619 N   0  0
  100.9304   -3.8790   26.5836 N   0  0
  101.4223   -2.8589   29.3537 N   0  0
   99.0105   -2.5886   29.4150 N   0  0
   97.6391   -3.1728   27.5634 N   0  0
   95.3362   -3.5944   20.9142 N   0  0
   97.4033   -2.6718   21.0378 N   0  0
   99.9219   -4.2921   21.1840 N   0  0
   98.4126   -6.1823   21.0563 N   0  0
   96.0532   -5.8996   20.9167 N   0  0
   90.4583   -5.0132   13.6771 N   0  0
   92.5833   -5.6132   14.1697 N   0  0
   93.2573   -7.8961   15.9829 N   0  0
   90.8518   -8.1677   16.1292 N   0  0
   89.3581   -6.7297   14.9615 N   0  0
   86.8626   -5.4145    9.1684 N   0  0
   88.2999   -7.1301    9.5525 N   0  0
   87.5006  -10.0101    9.4371 N   0  0
   85.3085   -9.1254    8.9399 N   0  0
   84.8985   -6.7858    8.7895 N   0  0
  1  6  1  0
  1  7  1  0
  1 30  1  0
  2 10  1  0
  2 12  1  0
  2 28  1  0
  3 14  1  0
  3 16  1  0
  3 39  1  0
  4 19  1  0
  4 21  1  0
  4 25  1  0
 30  8  1  0
 31  8  1  0
 32 31  1  0
 32 33  1  0
 32 29  1  0
 33  9  1  0
 33 34  1  0
 34 10  1  0
 34 66  1  0
 35 12  1  0
 36 35  1  0
 36 37  1  0
 36 27  1  0
 37 13  1  0
 37 38  1  0
 38 14  1  0
 38 60  1  0
 39 17  1  0
 40 17  1  0
 41 40  1  0
 41 42  1  0
 41 26  1  0
 42 18  1  0
 42 43  1  0
 43 19  1  0
 43 54  1  0
 44 21  1  0
 45 44  1  0
 45 46  1  0
 45 24  1  0
 46 22  1  0
 46 47  1  0
 47 23  1  0
 47 48  1  0
 48 24  1  0
 48 72  1  0
 50 73  1  0
 51 74  1  0
 51 75  1  0
 52 76  1  0
 53 72  1  0
 53 50  1  0
 54 26  1  0
 54 77  1  0
 56 78  1  0
 57 79  1  0
 57 80  1  0
 58 81  1  0
 59 77  1  0
 59 56  1  0
 60 27  1  0
 60 82  1  0
 62 83  1  0
 63 84  1  0
 63 85  1  0
 64 86  1  0
 65 82  1  0
 65 62  1  0
 66 29  1  0
 66 87  1  0
 68 88  1  0
 69 89  1  0
 69 90  1  0
 70 91  1  0
 71 87  1  0
 71 68  1  0
 72 49  1  0
 77 55  1  0
 82 61  1  0
 87 67  1  0
  1  5  2  0
  2 11  2  0
  3 15  2  0
  4 20  2  0
 49 73  2  0
 50 51  2  0
 52 75  2  0
 53 76  2  0
 55 78  2  0
 56 57  2  0
 58 80  2  0
 59 81  2  0
 61 83  2  0
 62 63  2  0
 64 85  2  0
 65 86  2  0
 67 88  2  0
 68 69  2  0
 70 90  2  0
 71 91  2  0
M  END
> <Name>
CHEMBL2059743 PubChem-70694795

> <rmsd>
0.631362915

$$$$
CHEMBL384618 PubChem-44271859
  SciTegic06052412183D

 91 94  0  0  0  0            999 V2000
   94.9481   -3.0277   26.8633 S   0  0
   94.6838   -2.9257   28.3381 O   0  0
   93.9711   -3.9966   26.2590 O   0  0
   94.7543   -1.4821   26.1443 O   0  0
   98.1324   -2.1616   21.2366 O   0  0
   97.3108   -3.9610   16.7461 O   0  0
   96.0612   -7.3736   16.6168 O   0  0
   95.9471   -6.8890   11.7112 O   0  0
   91.8299   -9.3415   11.3848 O   0  0
   90.9224   -8.0345    7.8293 O   0  0
   87.9160   -6.8339   10.3705 O   0  0
   91.2838  -10.4873    5.3456 O   0  0
   93.2821  -10.5477    6.4649 O   0  0
   99.0345    1.2857   19.2854 O   0  0
  100.7316    2.1152   24.7258 O   0  0
   99.0725    0.6142   25.3157 O   0  0
  100.8525   -1.2808   21.1611 O   0  0
  102.5242   -0.0199   20.2429 O   0  0
   96.5158   -3.5644   26.6181 O   0  0
   94.9119   -1.2504   24.7761 C   0  0
   95.1176   -2.3059   23.8726 C   0  0
   95.2670   -2.0440   22.5103 C   0  0
   95.2192   -0.7242   22.0381 C   0  0
   95.4166   -0.4424   20.5818 C   0  0
   96.8957   -0.4020   20.1798 C   0  0
   97.5218   -1.7654   20.2068 C   0  0
   97.8195   -4.0227   19.0993 C   0  0
   97.7883   -4.6131   17.7153 C   0  0
   98.2928   -6.6122   16.2192 C   0  0
   96.8933   -6.9035   15.7925 C   0  0
   95.1443   -6.8505   13.9734 C   0  0
   95.1366   -7.3541   12.5618 C   0  0
   94.1251   -8.9042   10.8412 C   0  0
   92.7443   -9.3843   10.5149 C   0  0
   91.1180  -10.2318    8.7594 C   0  0
   90.3437   -9.0073    8.3842 C   0  0
   88.1077   -7.8462    8.1993 C   0  0
   88.2644   -6.7106    9.1651 C   0  0
   86.6498   -8.2763    8.1049 C   0  0
   86.4351   -9.2417    6.9853 C   0  0
   86.0464  -10.5532    7.2718 C   0  0
   85.8315  -11.4665    6.2356 C   0  0
   85.9995  -11.0711    4.9096 C   0  0
   86.3711   -9.7561    4.6189 C   0  0
   86.5862   -8.8413    5.6553 C   0  0
   91.1572  -11.2364    7.6051 C   0  0
   91.9045  -10.7310    6.4109 C   0  0
   95.1332  -10.0424   10.7507 C   0  0
   95.5578  -10.3241    9.3126 C   0  0
   96.5497   -9.2783    8.8170 C   0  0
   95.8117   -8.0742    8.2514 C   0  0
   94.3686   -5.5433   14.0960 C   0  0
   92.8973   -5.7840   13.9827 C   0  0
   92.0659   -5.3206   12.9685 C   0  0
   90.8344   -6.4585   14.3128 C   0  0
   92.1004   -6.5031   14.8359 C   0  0
   92.3971   -7.1890   16.0119 C   0  0
   91.3377   -7.8499   16.6612 C   0  0
   90.0299   -7.8094   16.1265 C   0  0
   89.7666   -7.1078   14.9345 C   0  0
   99.0560   -7.9167   16.3216 C   0  0
  100.5429   -7.6452   16.3763 C   0  0
  101.3133   -8.9526   16.5002 C   0  0
  101.4246   -9.3900   17.9530 C   0  0
   96.9543   -4.8496   20.0492 C   0  0
   97.7475   -6.0062   20.6469 C   0  0
   98.7493   -5.5140   21.6799 C   0  0
   98.0410   -5.0847   22.9504 C   0  0
   98.6792    1.3737   20.4910 C   0  0
   99.3160    2.3800   21.3905 C   0  0
  100.8282    2.1723   21.5348 C   0  0
  101.2418    0.8523   22.2024 C   0  0
  100.0530    1.0926   24.4374 C   0  0
   98.7291    1.2203   26.5641 C   0  0
   97.6201    0.4077   27.2152 C   0  0
   99.9310    1.2417   27.4974 C   0  0
   98.2237    2.6396   26.3462 C   0  0
  101.5132   -0.2104   21.1774 C   0  0
   95.0175    0.3330   22.9362 C   0  0
   94.8575    0.0674   24.2987 C   0  0
   97.3602   -2.6369   19.0878 N   0  0
   98.3097   -5.9292   17.5098 N   0  0
   96.5107   -6.6611   14.4376 N   0  0
   94.1663   -8.3304   12.1793 N   0  0
   92.4635   -9.8882    9.2069 N   0  0
   88.9347   -8.9718    8.6114 N   0  0
   88.8706   -5.5031    8.7335 N   0  0
   90.7904   -5.7373   13.1772 N   0  0
  100.1696   -9.9666   18.4055 N   0  0
   97.6395    0.5400   21.0064 N   0  0
  100.2752    0.4014   23.2065 N   0  0
  1  4  1  0
  1 19  1  0
 20  4  1  0
 21 22  1  0
 23 79  1  0
 24 23  1  0
 25 24  1  0
 25 26  1  0
 25 90  1  0
 26 81  1  0
 27 81  1  0
 27 28  1  0
 27 65  1  0
 28 82  1  0
 29 82  1  0
 29 30  1  0
 29 61  1  0
 30 83  1  0
 31 83  1  0
 31 32  1  0
 31 52  1  0
 32 84  1  0
 33 84  1  0
 33 34  1  0
 33 48  1  0
 34 85  1  0
 35 85  1  0
 35 36  1  0
 35 46  1  0
 36 86  1  0
 37 86  1  0
 37 38  1  0
 37 39  1  0
 38 87  1  0
 39 40  1  0
 41 42  1  0
 43 44  1  0
 45 40  1  0
 46 47  1  0
 47 13  1  0
 48 49  1  0
 49 50  1  0
 50 51  1  0
 52 53  1  0
 54 88  1  0
 56 57  1  0
 56 53  1  0
 58 59  1  0
 60 55  1  0
 61 62  1  0
 62 63  1  0
 63 64  1  0
 64 89  1  0
 65 66  1  0
 66 67  1  0
 67 68  1  0
 70 69  1  0
 70 71  1  0
 72 71  1  0
 72 91  1  0
 72 78  1  0
 73 16  1  0
 74 16  1  0
 74 75  1  0
 74 76  1  0
 74 77  1  0
 78 18  1  0
 80 20  1  0
 88 55  1  0
 90 69  1  0
 91 73  1  0
  1  2  2  0
  1  3  2  0
 20 21  2  0
 22 23  2  0
 26  5  2  0
 28  6  2  0
 30  7  2  0
 32  8  2  0
 34  9  2  0
 36 10  2  0
 38 11  2  0
 40 41  2  0
 42 43  2  0
 44 45  2  0
 47 12  2  0
 53 54  2  0
 55 56  2  0
 57 58  2  0
 59 60  2  0
 69 14  2  0
 73 15  2  0
 78 17  2  0
 79 80  2  0
M  END
> <Name>
CHEMBL384618 PubChem-44271859

> <rmsd>
0.642218947

$$$$
CHEMBL510753 PubChem-44571054
  SciTegic06052412183D

105111  0  0  0  0            999 V2000
   97.8313   -9.6589   18.1227 C   0  0
   97.3738   -8.5361   19.0389 C   0  0
   96.6377   -7.4138   18.2937 C   0  0
   95.4335   -7.9201   17.5152 C   0  0
   97.5385   -6.5114   17.4392 C   0  0
   98.4139   -6.6579   15.0702 C   0  0
   99.0713   -7.4630   14.0023 C   0  0
   97.4608   -9.4067   13.8054 C   0  0
   96.3262  -10.0611   13.0869 C   0  0
   96.8668  -11.0644   12.0862 C   0  0
   94.7371   -8.0749   13.0621 C   0  0
   93.8779   -7.1662   12.2439 C   0  0
   93.5202   -5.8408   12.9357 C   0  0
   92.1142   -5.7653   13.4526 C   0  0
   91.0992   -4.9825   12.9143 C   0  0
   90.2678   -5.9964   14.6156 C   0  0
   89.4167   -6.4492   15.6218 C   0  0
   89.9430   -7.3443   16.5706 C   0  0
   91.2911   -7.7581   16.4938 C   0  0
   92.1266   -7.2834   15.4678 C   0  0
   91.5716   -6.4027   14.5414 C   0  0
   92.1798   -7.6431   10.4398 C   0  0
   91.1766   -8.6022    9.8750 C   0  0
   91.7848   -9.9602    9.5148 C   0  0
   92.9438   -9.8726    8.5669 C   0  0
   94.2199   -9.3969    8.8571 C   0  0
   94.2654  -10.0970    6.8276 C   0  0
   94.6645  -10.4506    5.5402 C   0  0
   93.7094  -11.0570    4.7046 C   0  0
   92.3998  -11.2983    5.1695 C   0  0
   92.0251  -10.9327    6.4745 C   0  0
   92.9919  -10.3275    7.2738 C   0  0
   89.2186   -7.3493    8.8941 C   0  0
   88.4814   -6.8206    7.6963 C   0  0
   87.0004   -7.1944    7.7479 C   0  0
   86.1750   -6.2699    6.8722 C   0  0
   85.9272   -4.9552    7.5945 C   0  0
   84.9673   -4.0908    6.8002 C   0  0
   89.1252   -8.6347    5.9978 C   0  0
   89.7548   -9.0117    4.6832 C   0  0
   90.5371   -7.9369    3.9156 C   0  0
   89.8261   -6.6281    3.7341 C   0  0
   90.3292   -5.3919    4.1244 C   0  0
   88.4131   -5.0261    3.2251 C   0  0
   87.2608   -4.4191    2.7305 C   0  0
   86.2848   -5.2488    2.1528 C   0  0
   86.4819   -6.6434    2.0826 C   0  0
   87.6560   -7.2280    2.5854 C   0  0
   88.6037   -6.3806    3.1542 C   0  0
   88.7243  -11.1595    3.8687 C   0  0
   87.9421  -11.9169    2.8362 C   0  0
   88.8014  -12.9286    2.0775 C   0  0
   89.9315  -12.2930    1.3281 C   0  0
   85.8354  -10.7659    2.0689 C   0  0
   85.0274  -10.3001    0.9028 C   0  0
   85.6547   -9.0778    0.2578 C   0  0
   83.6613  -11.9563   -0.4191 C   0  0
   83.6110  -13.0461   -1.4303 C   0  0
   98.5584   -5.7988   18.2773 C   0  0
   99.0487   -4.1846   20.1577 C   0  0
   99.9218   -3.1772   19.4173 C   0  0
  101.2016   -2.9516   20.1495 C   0  0
  102.1610   -3.9706   20.2226 C   0  0
  103.3642   -3.7531   20.9007 C   0  0
  103.6118   -2.5162   21.5053 C   0  0
  102.6582   -1.4951   21.4283 C   0  0
  101.4546   -1.7122   20.7481 C   0  0
   98.2917   -3.5165   21.2565 C   0  0
   97.9357   -3.2348   23.7373 C   0  0
   97.7060   -4.1924   24.8990 C   0  0
   96.8854   -3.5526   25.9683 C   0  0
   98.8869   -2.1420   24.1170 C   0  0
   98.1616   -7.2497   16.3454 N   0  0
   98.0755   -8.2305   13.2700 N   0  0
   95.5035   -9.0782   12.3922 N   0  0
   89.9588   -5.1305   13.6337 N   0  0
   92.7180   -7.8884   11.7362 N   0  0
   95.0321   -9.5309    7.7773 N   0  0
   90.4668   -8.0328    8.7388 N   0  0
   85.6290   -3.5501    5.6236 N   0  0
   89.0824   -7.2688    6.4389 N   0  0
   89.4528   -4.4055    3.8100 N   0  0
   88.8319   -9.7341    3.8178 N   0  0
   89.6763  -11.4937    0.1776 N   0  0
   87.2284  -11.0472    1.9118 N   0  0
   84.9185  -11.3736   -0.0741 N   0  0
   98.1252   -4.8321   19.2372 N   0  0
   98.4672   -3.9691   22.5994 N   0  0
  100.2187   -2.4512   24.5228 N   0  0
   98.0609   -5.4722   14.8302 O   0  0
   97.8919   -9.9217   14.8714 O   0  0
   94.7729   -7.9764   14.3194 O   0  0
   92.5977   -6.6723    9.7511 O   0  0
   88.7513   -7.1449   10.0475 O   0  0
   88.6483   -9.5480    6.7258 O   0  0
   89.3045  -11.8012    4.7837 O   0  0
   91.1157  -12.4870    1.7061 O   0  0
   85.2698  -10.9529    3.1782 O   0  0
   84.8211   -8.5965   -0.7508 O   0  0
   82.5979  -11.5643    0.1308 O   0  0
   99.7890   -6.0499   18.1394 O   0  0
   97.5086   -2.5590   21.0005 O   0  0
   97.3489   -3.4391   27.1318 O   0  0
   95.6085   -3.0786   25.6832 O   0  0
   98.5171   -0.9400   24.0529 O   0  0
  1  2  1  0
  3  2  1  0
  3  4  1  0
  3  5  1  0
  5 73  1  0
  5 59  1  0
  7  6  1  0
  7 74  1  0
  9  8  1  0
  9 10  1  0
  9 75  1  0
 12 11  1  0
 12 13  1  0
 12 77  1  0
 13 14  1  0
 15 76  1  0
 17 18  1  0
 19 20  1  0
 21 14  1  0
 21 16  1  0
 23 22  1  0
 23 24  1  0
 23 79  1  0
 24 25  1  0
 26 78  1  0
 28 29  1  0
 30 31  1  0
 32 25  1  0
 32 27  1  0
 34 33  1  0
 34 35  1  0
 34 81  1  0
 35 36  1  0
 36 37  1  0
 37 38  1  0
 38 80  1  0
 40 39  1  0
 40 41  1  0
 40 83  1  0
 41 42  1  0
 43 82  1  0
 45 46  1  0
 47 48  1  0
 49 42  1  0
 49 44  1  0
 51 50  1  0
 51 52  1  0
 51 85  1  0
 52 53  1  0
 53 84  1  0
 55 54  1  0
 55 56  1  0
 55 86  1  0
 56 99  1  0
 58 57  1  0
 59 87  1  0
 60 87  1  0
 60 61  1  0
 60 68  1  0
 61 62  1  0
 63 64  1  0
 65 66  1  0
 67 62  1  0
 68 88  1  0
 69 88  1  0
 69 70  1  0
 69 72  1  0
 70 71  1  0
 71104  1  0
 72 89  1  0
 73  6  1  0
 74  8  1  0
 75 11  1  0
 76 16  1  0
 77 22  1  0
 78 27  1  0
 79 33  1  0
 81 39  1  0
 82 44  1  0
 83 50  1  0
 85 54  1  0
 86 57  1  0
  6 90  2  0
  8 91  2  0
 11 92  2  0
 14 15  2  0
 16 17  2  0
 18 19  2  0
 20 21  2  0
 22 93  2  0
 25 26  2  0
 27 28  2  0
 29 30  2  0
 31 32  2  0
 33 94  2  0
 39 95  2  0
 42 43  2  0
 44 45  2  0
 46 47  2  0
 48 49  2  0
 50 96  2  0
 53 97  2  0
 54 98  2  0
 57100  2  0
 59101  2  0
 62 63  2  0
 64 65  2  0
 66 67  2  0
 68102  2  0
 71103  2  0
 72105  2  0
M  END
> <Name>
CHEMBL510753 PubChem-44571054

> <rmsd>
0.583920062

$$$$
CHEMBL414089 PubChem-44348576
  SciTegic06052412183D

105116  0  0  0  0            999 V2000
   88.9993   -4.7699   21.9358 C   0  0
   88.1480   -3.1729   23.1364 C   0  0
   89.5009   -2.9231   23.0675 C   0  0
   90.0655   -3.9310   22.2947 C   0  0
   91.4498   -3.9249   21.7140 C   0  0
   93.4933   -3.5977   22.5018 C   0  0
   94.6116   -4.0411   21.5255 C   0  0
   94.0674   -4.4136   20.1780 C   0  0
   92.9734   -4.1594   18.2343 C   0  0
   92.1060   -3.4382   17.2944 C   0  0
   89.9641   -4.8233   17.8141 C   0  0
   90.0272   -6.0446   16.9403 C   0  0
   89.7276   -7.2264   15.0512 C   0  0
   89.3779   -7.3847   13.6341 C   0  0
   90.0455   -6.6452   12.6386 C   0  0
   91.2804   -5.9047   12.9390 C   0  0
   93.3273   -5.5540   13.8070 C   0  0
   94.5659   -5.9529   14.4839 C   0  0
   96.9037   -5.3924   15.2410 C   0  0
   96.8748   -5.5516   16.7277 C   0  0
   97.4330   -7.1788   18.6470 C   0  0
   97.4470   -8.4610   19.0402 C   0  0
   97.8615  -10.1210   20.8327 C   0  0
   97.0209   -9.5423   18.0930 C   0  0
   97.8536   -6.1253   19.5857 C   0  0
   97.6715   -4.2738   20.8369 C   0  0
   96.9949   -3.0711   21.3517 C   0  0
   99.0440   -4.4884   20.9992 C   0  0
   97.9735   -4.3812   14.8220 C   0  0
   97.9446   -4.1487   13.3227 C   0  0
   93.1304   -4.2851   13.2520 C   0  0
   89.5768   -6.7030   11.3257 C   0  0
   88.4709   -7.4923   11.0074 C   0  0
   87.8390   -8.2387   12.0231 C   0  0
   86.6589   -9.0888   11.7660 C   0  0
   84.9721  -10.0490   10.6243 C   0  0
   84.1585  -10.3361    9.4360 C   0  0
   83.8300   -9.8996    6.9239 C   0  0
   82.6362  -10.4834    6.8577 C   0  0
   84.4353   -9.3348    5.7044 C   0  0
   84.6866  -10.5908   11.8777 C   0  0
   90.1608   -8.2801   15.8522 C   0  0
   90.3675   -5.0133   19.2736 C   0  0
   89.0483   -6.0081   21.1220 C   0  0
   93.2061   -5.5324   18.1430 C   0  0
   94.0516   -3.3191   23.9121 C   0  0
   92.9876   -3.3295   24.9824 C   0  0
   91.5375   -1.6600   23.8620 C   0  0
   90.0668   -1.8021   23.6914 C   0  0
   89.2108   -0.9197   24.3665 C   0  0
   87.8239   -1.1524   24.4002 C   0  0
   87.2833   -2.2913   23.7879 C   0  0
   95.5903   -2.0959   25.0250 C   0  0
   96.9686   -2.6404   24.6509 C   0  0
   97.8382   -2.7208   25.9024 C   0  0
   97.8010   -1.3616   26.6717 C   0  0
   96.3677   -0.8101   26.7844 C   0  0
   95.5550   -1.4991   27.8717 C   0  0
  100.0331   -0.5097   26.7842 C   0  0
   98.8379   -0.2140   24.7654 C   0  0
   99.2455   -3.1428   25.5079 C   0  0
   83.8524   -3.8571   24.9124 C   0  0
   83.8307   -3.5528   26.3945 C   0  0
   87.8415   -4.3069   22.4654 N   0  0
   93.4472   -3.5470   19.3536 N   0  0
   90.6969   -3.7157   17.1954 N   0  0
   89.6504   -6.0095   15.6490 N   0  0
   92.3057   -6.4377   13.6359 N   0  0
   95.5863   -4.9871   14.7577 N   0  0
   97.0528   -6.8541   17.2947 N   0  0
   97.0262   -5.1777   20.0596 N   0  0
   95.5656   -2.9450   21.3714 N   0  0
   86.0550   -9.2251   10.5668 N   0  0
   84.5386   -9.7842    8.1667 N   0  0
   85.7098   -8.7011    5.7693 N   0  0
   88.3093   -8.1526   13.2980 N   0  0
   98.7110   -0.2907   26.2176 N   0  0
   92.4152   -4.5030   22.5449 O   0  0
   92.5837   -2.4694   16.6504 O   0  0
   94.7397   -7.1644   14.7924 O   0  0
   96.6758   -4.5450   17.4583 O   0  0
   97.8631   -8.7890   20.3384 O   0  0
   97.6903   -2.0895   21.7340 O   0  0
   99.2354   -4.8607   15.1742 O   0  0
   83.1397  -11.0702    9.5428 O   0  0
   83.8403   -9.4069    4.5953 O   0  0
   88.0276   -7.5354    9.6894 O   0  0
   89.7080   -6.1006   19.8948 O   0  0
   88.4219   -7.0189   21.5352 O   0  0
   93.1007   -4.1446   25.9317 O   0  0
   91.9147   -2.4370   24.9881 O   0  0
   94.7374   -2.0917   23.9111 O   0  0
   95.6976   -0.7832   25.5349 O   0  0
   97.3249   -3.7163   26.7369 O   0  0
   86.6129   -4.9227   22.2580 O   0  0
   84.8289   -2.9662   22.2343 O   0  0
   85.1421   -4.2333   24.5327 O   0  0
   83.8856   -5.4003   22.3580 O   0  0
   99.4197   -5.8786   20.1224 S   0  0
   91.6090   -4.3127   12.5151 S   0  0
   85.8559   -9.9928   12.9302 S   0  0
   90.4694   -7.6080   17.3706 S   0  0
   94.0310   -5.9631   19.5451 S   0  0
   85.1031   -4.3274   22.8369 P   0  0
   82.1588   -3.2474   26.9085 Cl  0  0
  1 64  1  0
  3  4  1  0
  5  4  1  0
  5 78  1  0
  6 78  1  0
  6  7  1  0
  6 46  1  0
  7  8  1  0
  7 72  1  0
  8103  1  0
  9 65  1  0
  9 10  1  0
 10 66  1  0
 11 66  1  0
 11 12  1  0
 11 43  1  0
 12102  1  0
 13 67  1  0
 13 14  1  0
 14 76  1  0
 15 16  1  0
 15 32  1  0
 16100  1  0
 17 68  1  0
 17 18  1  0
 18 69  1  0
 19 69  1  0
 19 20  1  0
 19 29  1  0
 20 70  1  0
 21 25  1  0
 22 82  1  0
 23 82  1  0
 24 22  1  0
 25 99  1  0
 26 71  1  0
 26 27  1  0
 27 72  1  0
 28 99  1  0
 29 84  1  0
 29 30  1  0
 31100  1  0
 33 34  1  0
 33 87  1  0
 34 35  1  0
 35101  1  0
 36 73  1  0
 36 37  1  0
 37 74  1  0
 38 40  1  0
 40 75  1  0
 41101  1  0
 42102  1  0
 43 88  1  0
 44 88  1  0
 44  1  1  0
 45103  1  0
 46 47  1  0
 46 92  1  0
 47 91  1  0
 48 91  1  0
 48 49  1  0
 49  3  1  0
 50 51  1  0
 52  2  1  0
 53 92  1  0
 53 54  1  0
 53 93  1  0
 54 55  1  0
 55 56  1  0
 55 94  1  0
 55 61  1  0
 56 57  1  0
 56 77  1  0
 57 93  1  0
 57 58  1  0
 59 77  1  0
 60 77  1  0
 62 97  1  0
 62 63  1  0
 63105  1  0
 64  2  1  0
 64 95  1  0
 70 21  1  0
 74 38  1  0
104 95  1  0
104 97  1  0
104 98  1  0
  2  3  2  0
  4  1  2  0
  8 65  2  0
  9 45  2  0
 10 79  2  0
 12 67  2  0
 13 42  2  0
 14 15  2  0
 16 68  2  0
 17 31  2  0
 18 80  2  0
 20 81  2  0
 21 22  2  0
 25 71  2  0
 26 28  2  0
 27 83  2  0
 32 33  2  0
 34 76  2  0
 35 73  2  0
 36 41  2  0
 37 85  2  0
 38 39  2  0
 40 86  2  0
 44 89  2  0
 47 90  2  0
 49 50  2  0
 51 52  2  0
104 96  2  0
M  END
> <Name>
CHEMBL414089 PubChem-44348576

> <rmsd>
0.66406101

$$$$
CHEMBL4077407 PubChem-137652345
  SciTegic06052412183D

 52 59  0  0  0  0            999 V2000
   99.0754   -7.0787   22.5722 C   0  0
   98.1710   -6.4905   21.6848 C   0  0
   97.9906   -5.1053   21.6723 C   0  0
   98.7180   -4.3121   22.5694 C   0  0
   99.6141   -4.8886   23.4791 C   0  0
   99.8099   -6.2871   23.4590 C   0  0
  100.7572   -6.9548   24.4088 C   0  0
  101.8977   -6.0137   24.7693 C   0  0
  100.4165   -3.9930   24.3999 C   0  0
   99.4957   -3.0186   25.1697 C   0  0
  101.0338   -3.0917   27.1287 C   0  0
  101.7463   -4.2574   26.5476 C   0  0
   98.5491   -3.4276   27.4600 C   0  0
   98.6808   -3.5636   28.9493 C   0  0
   99.5450   -4.7709   29.3331 C   0  0
   99.7507   -4.8078   30.8469 C   0  0
  100.3679   -3.5111   31.3959 C   0  0
  100.4355   -2.3727   30.3692 C   0  0
   99.1216   -2.2408   29.6010 C   0  0
   96.7797   -3.1388   20.5671 C   0  0
   95.7399   -2.7200   19.5832 C   0  0
   94.4728   -2.2713   20.3022 C   0  0
   93.6523   -3.4624   20.7871 C   0  0
   92.8232   -4.0382   19.6527 C   0  0
   93.6094   -5.0966   18.9003 C   0  0
   93.4606   -5.1221   16.4007 C   0  0
   92.7283   -5.4654   15.1647 C   0  0
   91.4865   -6.1309   15.2368 C   0  0
   90.9419   -6.5079   16.4854 C   0  0
   91.6732   -6.2137   17.7338 C   0  0
   89.7019   -7.1542   16.5356 C   0  0
   88.9997   -7.4312   15.3637 C   0  0
   89.5319   -7.0690   14.1276 C   0  0
   90.7746   -6.4234   14.0419 C   0  0
   91.3239   -6.0552   12.7895 C   0  0
   92.5590   -5.4056   12.7459 C   0  0
   93.2535   -5.1121   13.9178 C   0  0
   90.6347   -6.3021   11.4757 C   0  0
   90.3941   -7.7926   11.2161 C   0  0
   89.5510   -7.9484    9.9488 C   0  0
   88.6227   -5.8917   10.0664 C   0  0
   89.3414   -5.4894   11.3536 C   0  0
  101.3381   -4.7602   25.2652 N   0  0
   99.6715   -3.1147   26.6166 N   0  0
   97.0583   -4.5351   20.7442 N   0  0
   92.9061   -5.4743   17.6778 N   0  0
  102.6804   -4.8036   27.1910 O   0  0
   97.4074   -3.5956   26.9480 O   0  0
   97.3868   -2.2595   21.2379 O   0  0
   94.5594   -4.5047   16.3353 O   0  0
   91.2186   -6.6090   18.8432 O   0  0
   88.3257   -7.2682   10.0959 O   0  0
  2  3  1  0
  3 45  1  0
  4  5  1  0
  6  1  1  0
  7  6  1  0
  7  8  1  0
  8 43  1  0
  9 43  1  0
  9 10  1  0
  9  5  1  0
 10 44  1  0
 11 44  1  0
 11 12  1  0
 12 43  1  0
 14 13  1  0
 14 15  1  0
 15 16  1  0
 16 17  1  0
 17 18  1  0
 18 19  1  0
 19 14  1  0
 21 20  1  0
 21 22  1  0
 22 23  1  0
 23 24  1  0
 24 25  1  0
 25 46  1  0
 26 27  1  0
 28 29  1  0
 29 30  1  0
 30 46  1  0
 31 32  1  0
 33 34  1  0
 34 28  1  0
 35 36  1  0
 37 27  1  0
 38 35  1  0
 38 39  1  0
 39 40  1  0
 40 52  1  0
 41 52  1  0
 41 42  1  0
 42 38  1  0
 44 13  1  0
 45 20  1  0
 46 26  1  0
  1  2  2  0
  3  4  2  0
  5  6  2  0
 12 47  2  0
 13 48  2  0
 20 49  2  0
 26 50  2  0
 27 28  2  0
 29 31  2  0
 30 51  2  0
 32 33  2  0
 34 35  2  0
 36 37  2  0
M  END
> <Name>
CHEMBL4077407 PubChem-137652345

> <rmsd>
0.454146445

$$$$
CHEMBL2057901 PubChem-70692669
  SciTegic06052412183D

 90101  0  0  0  0            999 V2000
   97.7929    1.9195   31.4517 P   0  0
   94.8350   -1.2491   23.9641 P   0  0
   98.1206   -2.9743   16.6219 P   0  0
   90.1092   -2.1482   14.0122 P   0  0
   96.4793    1.2442   31.7659 O   0  0
   97.4996    3.5080   30.9495 O   0  0
   98.7622    1.9250   32.8344 O   0  0
   97.8600    1.0212   28.9814 O   0  0
   97.3267    1.6236   25.5693 O   0  0
   95.8435   -1.4355   25.3199 O   0  0
   93.5926   -2.0832   24.1804 O   0  0
   95.6126   -1.8046   22.5532 O   0  0
   95.5933   -0.7112   18.7117 O   0  0
   97.7762   -1.8054   17.7977 O   0  0
   98.7418   -2.2937   15.4218 O   0  0
   96.7043   -3.7857   16.1654 O   0  0
   94.0028   -2.6571   12.8323 O   0  0
   91.5446   -2.9440   13.5698 O   0  0
   90.2459   -0.6735   13.7436 O   0  0
   88.8259   -2.7794   13.1054 O   0  0
   87.3688   -4.6808   11.1411 O   0  0
   88.0463   -6.7418    9.6957 O   0  0
   90.0209   -3.8392    9.8398 O   0  0
   89.7709   -2.3713   15.6528 O   0  0
   93.9022   -4.1385   15.9189 O   0  0
   99.2315   -4.0876   17.2411 O   0  0
   97.9341   -1.8768   21.0711 O   0  0
   94.3671    0.3739   23.8320 O   0  0
   98.8932   -1.2424   26.3885 O   0  0
   98.6354    0.9976   30.1400 C   0  0
   98.0828   -0.2119   28.3766 C   0  0
   98.3892   -0.0340   26.8985 C   0  0
   97.1376    0.3698   26.1424 C   0  0
   96.9802   -0.6580   25.0636 C   0  0
   95.9975   -0.6593   21.8452 C   0  0
   96.9010   -1.0154   20.6741 C   0  0
   96.1391   -1.6753   19.5604 C   0  0
   97.2047   -2.4994   18.8749 C   0  0
   95.8635   -2.8066   15.6247 C   0  0
   94.6869   -3.4827   14.9513 C   0  0
   93.8377   -2.4739   14.2051 C   0  0
   92.4267   -2.7781   14.6463 C   0  0
   89.2035   -2.6411   11.7661 C   0  0
   89.6768   -3.9776   11.1953 C   0  0
   88.6844   -5.1203   11.3547 C   0  0
   89.1179   -6.0167   10.2278 C   0  0
   89.6479   -5.0308    9.2015 C   0  0
   91.5163   -6.6724    8.6807 C   0  0
   92.2952   -5.8567    6.8822 C   0  0
   92.9712   -5.5418    5.7157 C   0  0
   91.4991   -3.6865    5.4448 C   0  0
   91.2714   -5.0829    7.2907 C   0  0
   92.5664   -4.0273   15.5010 C   0  0
   92.6945   -5.7872   13.6758 C   0  0
   91.2477   -7.1876   14.3659 C   0  0
   90.4406   -8.2854   14.6288 C   0  0
   89.7112   -7.1821   16.6131 C   0  0
   91.2507   -6.1335   15.2050 C   0  0
   98.2539   -2.6823   19.9596 C   0  0
   99.4650   -4.8313   20.4318 C   0  0
   97.9085   -6.0925   21.1212 C   0  0
   97.1070   -7.1038   21.6178 C   0  0
   95.2442   -5.6180   21.4357 C   0  0
   97.3713   -4.8941   20.8113 C   0  0
   98.2667   -1.4739   25.1568 C   0  0
   98.4209   -3.6253   23.8542 C   0  0
   97.5666   -5.0216   25.2020 C   0  0
   97.0419   -6.1179   25.8683 C   0  0
   96.5238   -4.6711   27.6990 C   0  0
   97.5336   -3.8052   25.7827 C   0  0
   90.7649   -5.5692    8.4282 N   0  0
   92.4841   -6.8779    7.7419 N   0  0
   94.0757   -6.3240    5.2707 N   0  0
   92.5526   -4.4485    5.0091 N   0  0
   90.8438   -4.0070    6.5973 N   0  0
   92.1563   -5.2390   14.7959 N   0  0
   92.1481   -7.0008   13.3782 N   0  0
   90.4235   -9.4195   13.7687 N   0  0
   89.6766   -8.2585   15.7607 N   0  0
   90.5134   -6.1054   16.3427 N   0  0
   98.3325   -4.0836   20.3610 N   0  0
   99.2322   -6.0873   20.9070 N   0  0
   97.6444   -8.3700   21.9751 N   0  0
   95.7707   -6.8421   21.7703 N   0  0
   96.0489   -4.6270   20.9432 N   0  0
   98.0666   -2.9064   24.9469 N   0  0
   98.1263   -4.9487   23.9811 N   0  0
   97.0345   -7.4113   25.2741 N   0  0
   96.5311   -5.9137   27.1222 N   0  0
   97.0276   -3.5927   27.0246 N   0  0
  1  6  1  0
  1  7  1  0
  1 30  1  0
  2 10  1  0
  2 12  1  0
  2 28  1  0
  3 14  1  0
  3 16  1  0
  3 26  1  0
  4 18  1  0
  4 20  1  0
  4 24  1  0
 30  8  1  0
 31  8  1  0
 32 31  1  0
 32 33  1  0
 32 29  1  0
 33  9  1  0
 33 34  1  0
 34 10  1  0
 34 65  1  0
 35 12  1  0
 36 35  1  0
 36 37  1  0
 36 27  1  0
 37 13  1  0
 37 38  1  0
 38 14  1  0
 38 59  1  0
 39 16  1  0
 40 39  1  0
 40 41  1  0
 40 25  1  0
 41 17  1  0
 41 42  1  0
 42 18  1  0
 42 53  1  0
 43 20  1  0
 44 43  1  0
 44 45  1  0
 44 23  1  0
 45 21  1  0
 45 46  1  0
 46 22  1  0
 46 47  1  0
 47 23  1  0
 47 71  1  0
 49 72  1  0
 50 73  1  0
 50 74  1  0
 51 75  1  0
 52 71  1  0
 52 49  1  0
 53 25  1  0
 53 76  1  0
 55 77  1  0
 56 78  1  0
 56 79  1  0
 57 80  1  0
 58 76  1  0
 58 55  1  0
 59 27  1  0
 59 81  1  0
 61 82  1  0
 62 83  1  0
 62 84  1  0
 63 85  1  0
 64 81  1  0
 64 61  1  0
 65 29  1  0
 65 86  1  0
 67 87  1  0
 68 88  1  0
 68 89  1  0
 69 90  1  0
 70 86  1  0
 70 67  1  0
 71 48  1  0
 76 54  1  0
 81 60  1  0
 86 66  1  0
  1  5  2  0
  2 11  2  0
  3 15  2  0
  4 19  2  0
 48 72  2  0
 49 50  2  0
 51 74  2  0
 52 75  2  0
 54 77  2  0
 55 56  2  0
 57 79  2  0
 58 80  2  0
 60 82  2  0
 61 62  2  0
 63 84  2  0
 64 85  2  0
 66 87  2  0
 67 68  2  0
 69 89  2  0
 70 90  2  0
M  END
> <Name>
CHEMBL2057901 PubChem-70692669

> <rmsd>
0.487307012

$$$$
CHEMBL2057900 PubChem-70696758
  SciTegic06052412183D

 90101  0  0  0  0            999 V2000
   88.2631   -6.4303   11.0599 P   0  0
   88.9236   -3.8226   18.2602 P   0  0
   94.8574   -1.1274   19.5316 P   0  0
  101.7327   -0.1938   22.4781 P   0  0
   88.8123   -5.0280   11.0164 O   0  0
   89.3160   -7.4331   11.9335 O   0  0
   88.1051   -7.0232    9.4884 O   0  0
   86.7671   -5.8707   13.1440 O   0  0
   85.6290   -5.2722   16.9656 O   0  0
   87.9686   -5.2091   18.0211 O   0  0
   88.6212   -3.2312   19.6204 O   0  0
   90.5648   -4.2370   18.1608 O   0  0
   93.0388   -4.1296   21.5870 O   0  0
   94.6635   -2.7080   20.1429 O   0  0
   94.3196   -0.9948   18.1231 O   0  0
   96.5036   -0.7087   19.5441 O   0  0
  100.4502   -2.0930   19.0793 O   0  0
  100.3007   -0.0948   21.5645 O   0  0
  102.6819    0.8978   22.0304 O   0  0
  101.3624    0.0029   24.1216 O   0  0
   98.6232    0.2723   25.4839 O   0  0
  100.3890   -1.3332   26.5581 O   0  0
  101.8034    1.5454   26.4372 O   0  0
  102.5066   -1.6862   22.2629 O   0  0
   97.7454   -2.4386   21.2321 O   0  0
   94.0160   -0.0582   20.5377 O   0  0
   93.0762   -5.4424   18.5592 O   0  0
   88.5726   -2.6655   17.0718 O   0  0
   87.7706   -7.3908   15.2843 O   0  0
   86.6407   -6.4151   11.8673 C   0  0
   85.9239   -6.6453   13.9440 C   0  0
   86.5074   -6.7771   15.3440 C   0  0
   86.6380   -5.4211   16.0119 C   0  0
   88.0119   -5.4621   16.6424 C   0  0
   90.7603   -5.2004   19.1566 C   0  0
   92.2039   -5.1968   19.6385 C   0  0
   92.5517   -3.8752   20.3016 C   0  0
   93.6315   -3.3139   19.4129 C   0  0
   97.1564   -1.8078   18.9702 C   0  0
   98.2341   -2.3507   19.9077 C   0  0
   99.4632   -1.4801   19.8531 C   0  0
   99.9093   -1.4061   21.2764 C   0  0
  100.8483    1.2965   24.2327 C   0  0
  100.6103    1.6725   25.6969 C   0  0
   99.5104    0.8791   26.3814 C   0  0
  100.2455   -0.1192   27.2271 C   0  0
  101.6139    0.5161   27.3877 C   0  0
  101.0622    2.0506   29.3246 C   0  0
  102.4622    1.4012   30.7838 C   0  0
  103.2593    1.1780   31.9003 C   0  0
  104.3406   -0.5663   30.6822 C   0  0
  102.6397    0.6582   29.6688 C   0  0
   98.6628   -1.7627   22.0636 C   0  0
  100.0502   -3.3901   23.4434 C   0  0
   98.7943   -3.6722   25.1289 C   0  0
   98.1809   -4.0254   26.3201 C   0  0
   96.3792   -2.5680   25.7467 C   0  0
   98.1923   -2.7950   24.2967 C   0  0
   94.1437   -4.5443   18.7029 C   0  0
   94.0588   -3.5978   16.3483 C   0  0
   96.0836   -3.8299   15.7432 C   0  0
   97.3165   -3.8567   15.1088 C   0  0
   98.2200   -4.8764   17.0696 C   0  0
   95.9544   -4.3292   16.9902 C   0  0
   88.4776   -6.8825   16.3843 C   0  0
   90.8336   -7.6814   16.7635 C   0  0
   91.9070   -6.6443   15.2526 C   0  0
   92.8314   -6.1029   14.3760 C   0  0
   91.0579   -4.8351   13.4014 C   0  0
   90.6097   -6.2789   15.1749 C   0  0
  101.7697    1.0508   28.7353 N   0  0
  101.4714    2.2941   30.6019 N   0  0
  103.1092    1.9443   33.0903 N   0  0
  104.1900    0.1819   31.8258 N   0  0
  103.5594   -0.3303   29.5832 N   0  0
   98.9689   -2.5922   23.2282 N   0  0
   99.9787   -4.0681   24.6236 N   0  0
   98.7915   -4.9400   27.2252 N   0  0
   96.9694   -3.4584   26.6074 N   0  0
   96.9941   -2.2230   24.5742 N   0  0
   94.6907   -4.1934   17.3958 N   0  0
   94.8986   -3.3648   15.2982 N   0  0
   97.4866   -3.3397   13.7921 N   0  0
   98.3730   -4.3863   15.7947 N   0  0
   96.9949   -4.8544   17.6800 N   0  0
   89.9115   -6.9217   16.1183 N   0  0
   92.0894   -7.5298   16.2509 N   0  0
   94.2029   -6.4796   14.4186 N   0  0
   92.3797   -5.2001   13.4521 N   0  0
   90.1542   -5.3768   14.2743 N   0  0
  1  6  1  0
  1  7  1  0
  1 30  1  0
  2 10  1  0
  2 12  1  0
  2 28  1  0
  3 14  1  0
  3 16  1  0
  3 26  1  0
  4 18  1  0
  4 20  1  0
  4 24  1  0
 30  8  1  0
 31  8  1  0
 32 31  1  0
 32 33  1  0
 32 29  1  0
 33  9  1  0
 33 34  1  0
 34 10  1  0
 34 65  1  0
 35 12  1  0
 36 35  1  0
 36 37  1  0
 36 27  1  0
 37 13  1  0
 37 38  1  0
 38 14  1  0
 38 59  1  0
 39 16  1  0
 40 39  1  0
 40 41  1  0
 40 25  1  0
 41 17  1  0
 41 42  1  0
 42 18  1  0
 42 53  1  0
 43 20  1  0
 44 43  1  0
 44 45  1  0
 44 23  1  0
 45 21  1  0
 45 46  1  0
 46 22  1  0
 46 47  1  0
 47 23  1  0
 47 71  1  0
 49 72  1  0
 50 73  1  0
 50 74  1  0
 51 75  1  0
 52 71  1  0
 52 49  1  0
 53 25  1  0
 53 76  1  0
 55 77  1  0
 56 78  1  0
 56 79  1  0
 57 80  1  0
 58 76  1  0
 58 55  1  0
 59 27  1  0
 59 81  1  0
 61 82  1  0
 62 83  1  0
 62 84  1  0
 63 85  1  0
 64 81  1  0
 64 61  1  0
 65 29  1  0
 65 86  1  0
 67 87  1  0
 68 88  1  0
 68 89  1  0
 69 90  1  0
 70 86  1  0
 70 67  1  0
 71 48  1  0
 76 54  1  0
 81 60  1  0
 86 66  1  0
  1  5  2  0
  2 11  2  0
  3 15  2  0
  4 19  2  0
 48 72  2  0
 49 50  2  0
 51 74  2  0
 52 75  2  0
 54 77  2  0
 55 56  2  0
 57 79  2  0
 58 80  2  0
 60 82  2  0
 61 62  2  0
 63 84  2  0
 64 85  2  0
 66 87  2  0
 67 68  2  0
 69 89  2  0
 70 90  2  0
M  END
> <Name>
CHEMBL2057900 PubChem-70696758

> <rmsd>
0.523558795

$$$$
CHEMBL187738 NSC710559 PubChem-399641
  SciTegic06052412183D

 62 69  0  0  0  0            999 V2000
   87.4559   -7.7676    8.8077 C   0  0
   87.2921   -6.8186   10.9292 C   0  0
   88.4108   -8.8419   10.6408 C   0  0
   89.8833   -9.0101   10.9886 C   0  0
   91.0534   -7.0569   11.8445 C   0  0
   91.4304   -6.2120   12.8820 C   0  0
   90.9997   -6.4937   14.1983 C   0  0
   91.3982   -5.6151   15.2513 C   0  0
   92.2009   -4.4775   14.9512 C   0  0
   92.5979   -4.2377   13.6359 C   0  0
   92.2206   -5.0935   12.6149 C   0  0
   93.5217   -2.4429   15.7665 C   0  0
   94.9385   -2.9419   15.5103 C   0  0
   95.5933   -3.4614   16.7852 C   0  0
   95.6427   -5.7920   16.5105 C   0  0
   95.2942   -4.8842   18.6237 C   0  0
   94.1839   -4.2881   19.4778 C   0  0
   94.5137   -4.4321   20.9520 C   0  0
   96.2260   -3.5175   22.6047 C   0  0
   97.4271   -2.7928   22.8546 C   0  0
   97.9296   -2.7001   24.1882 C   0  0
   97.2093   -3.3322   25.2270 C   0  0
   96.0353   -4.0378   24.9560 C   0  0
   95.5526   -4.1296   23.6622 C   0  0
   97.6810   -3.2487   26.5319 C   0  0
   99.5411   -1.9700   25.7924 C   0  0
   99.7870   -1.3842   23.4411 C   0  0
   99.3138   -1.4649   22.1080 C   0  0
   98.1444   -2.1648   21.8199 C   0  0
  100.0195   -0.8380   21.0664 C   0  0
  101.1861   -0.1239   21.3212 C   0  0
  101.6615   -0.0223   22.6225 C   0  0
  100.9707   -0.6437   23.6615 C   0  0
   99.3123   -2.4840   28.1755 C   0  0
   98.6002   -1.3668   28.9275 C   0  0
   99.8936    0.5148   29.4092 C   0  0
   97.8231    0.7601   28.3757 C   0  0
   90.9888   -5.9074   16.5646 C   0  0
   90.2020   -7.0305   16.8139 C   0  0
   89.8103   -7.8780   15.7477 C   0  0
   89.8534   -8.4196   13.3743 C   0  0
   89.0062   -8.9930   16.0733 C   0  0
   88.6086   -9.2650   17.3812 C   0  0
   89.0076   -8.4233   18.4128 C   0  0
   89.7979   -7.3134   18.1304 C   0  0
   88.1856   -7.5386   10.0416 N   0  0
   90.2640   -8.1317   12.1007 N   0  0
   92.6097   -3.5602   15.9779 N   0  0
   94.9801   -4.7114   17.2165 N   0  0
   95.6821   -3.6259   21.2826 N   0  0
   98.8306   -2.5723   26.7940 N   0  0
   99.0983   -2.0096   24.4745 N   0  0
   99.0115   -0.0703   28.4173 N   0  0
   90.2119   -7.6078   14.4447 N   0  0
   91.4396   -6.8195   10.6640 O   0  0
   97.0420   -3.8034   27.4714 O   0  0
  100.6160   -1.3825   26.1004 O   0  0
   97.7431   -2.2218   20.6231 O   0  0
  101.8715    0.4828   20.2794 O   0  0
   91.3259   -5.1679   17.5314 O   0  0
   89.1399   -9.4488   13.5480 O   0  0
   88.6183   -8.6865   19.7187 O   0  0
  1 46  1  0
  2 46  1  0
  3 46  1  0
  3  4  1  0
  4 47  1  0
  5  6  1  0
  7  8  1  0
  8 38  1  0
  9 10  1  0
  9 48  1  0
 11  6  1  0
 12 48  1  0
 12 13  1  0
 13 14  1  0
 14 49  1  0
 15 49  1  0
 16 49  1  0
 16 17  1  0
 17 18  1  0
 18 50  1  0
 19 20  1  0
 21 22  1  0
 22 25  1  0
 23 24  1  0
 25 51  1  0
 26 52  1  0
 28 29  1  0
 28 30  1  0
 29 20  1  0
 31 32  1  0
 31 59  1  0
 33 27  1  0
 34 51  1  0
 34 35  1  0
 35 53  1  0
 36 53  1  0
 37 53  1  0
 38 39  1  0
 40 54  1  0
 40 42  1  0
 41 47  1  0
 43 44  1  0
 44 62  1  0
 45 39  1  0
 47  5  1  0
 50 19  1  0
 51 26  1  0
 52 27  1  0
 52 21  1  0
 54 41  1  0
 54  7  1  0
  5 55  2  0
  6  7  2  0
  8  9  2  0
 10 11  2  0
 20 21  2  0
 22 23  2  0
 24 19  2  0
 25 56  2  0
 26 57  2  0
 27 28  2  0
 29 58  2  0
 30 31  2  0
 32 33  2  0
 38 60  2  0
 39 40  2  0
 41 61  2  0
 42 43  2  0
 44 45  2  0
M  END
> <Name>
CHEMBL187738 NSC710559 PubChem-399641

> <rmsd>
0.560923636

$$$$
CHEMBL2009235
  SciTegic06052412183D

 64 71  0  0  0  0            999 V2000
   81.8403  -11.6959   10.7838 N   0  0
   88.4337   -8.1793   13.1802 N   0  0
   88.5275   -8.0938   14.4460 N   0  0
   92.6007   -5.5536   17.5225 N   0  0
   93.5395   -4.8058   17.1021 N   0  0
   97.2104   -2.3017   20.6469 N   0  0
   97.3357   -2.6718   21.8595 N   0  0
   82.9536  -11.0943   11.4242 C   0  0
   82.9818  -10.9850   12.8176 C   0  0
   84.0774  -10.4005   13.4589 C   0  0
   85.1541   -9.9177   12.6979 C   0  0
   86.2560   -9.3132   13.3125 C   0  0
   87.3217   -8.8183   12.5457 C   0  0
   89.6143   -7.4444   15.1252 C   0  0
   89.5979   -7.4855   16.5183 C   0  0
   90.5925   -6.8661   17.2690 C   0  0
   91.6378   -6.1786   16.6555 C   0  0
   94.4823   -4.1951   17.9887 C   0  0
   94.4658   -4.4882   19.3573 C   0  0
   95.3727   -3.8799   20.2221 C   0  0
   96.3139   -2.9592   19.7422 C   0  0
   98.1960   -1.9801   22.7695 C   0  0
   98.8360   -0.7854   22.3987 C   0  0
   99.6388   -0.1007   23.3123 C   0  0
   99.8102   -0.6003   24.6048 C   0  0
  100.5865    0.1084   25.5222 C   0  0
  100.7537   -0.3747   26.8213 C   0  0
  100.1527   -1.5764   27.2006 C   0  0
   99.3751   -2.3074   26.2951 C   0  0
   99.1855   -1.8129   24.9890 C   0  0
   98.3765   -2.4863   24.0590 C   0  0
   96.3436   -2.6551   18.3705 C   0  0
   97.2741   -1.7368   17.8618 C   0  0
   97.3015   -1.4386   16.4997 C   0  0
   96.4021   -2.0568   15.6319 C   0  0
   95.4715   -2.9745   16.1225 C   0  0
   95.4291   -3.2850   17.4882 C   0  0
   91.6895   -6.1251   15.2372 C   0  0
   92.7225   -5.4507   14.5745 C   0  0
   92.7704   -5.3901   13.1864 C   0  0
   91.7791   -6.0152   12.4299 C   0  0
   90.7430   -6.6927   13.0671 C   0  0
   90.6727   -6.7614   14.4670 C   0  0
   87.2828   -8.9376   11.1433 C   0  0
   86.1827   -9.5435   10.5265 C   0  0
   85.1223  -10.0316   11.2897 C   0  0
   84.0222  -10.6197   10.6612 C   0  0
   84.0832  -10.3011   14.8465 O   0  0
  102.8587   -0.3192   28.4500 O   0  0
  100.8518    0.9112   29.1490 O   0  0
  102.3132    1.9190   27.2541 O   0  0
   99.2387   -4.2149   28.1641 O   0  0
   97.1755   -3.6702   26.9625 O   0  0
   99.0117   -5.0366   25.7200 O   0  0
   93.8522   -4.4852   10.9201 O   0  0
   95.3805   -5.2422   12.6812 O   0  0
   94.1561   -2.9670   12.9991 O   0  0
   88.6337   -6.8168   10.2466 O   0  0
   89.8988   -8.8973   10.5838 O   0  0
   88.3233   -8.7402    8.5352 O   0  0
  101.7106    0.5270   27.9793 S   0  0
   98.6638   -3.8264   26.8319 S   0  0
   94.0839   -4.5343   12.4055 S   0  0
   88.5876   -8.3153   10.1377 S   0  0
  1  8  1  0
  9 10  1  0
 10 48  1  0
 11 12  1  0
 13  2  1  0
 13 44  1  0
 14  3  1  0
 15 16  1  0
 17  4  1  0
 17 38  1  0
 18  5  1  0
 19 20  1  0
 21  6  1  0
 21 32  1  0
 22  7  1  0
 23 24  1  0
 25 26  1  0
 27 28  1  0
 29 30  1  0
 30 25  1  0
 31 22  1  0
 33 34  1  0
 35 36  1  0
 37 18  1  0
 37 32  1  0
 39 40  1  0
 41 42  1  0
 43 14  1  0
 43 38  1  0
 45 46  1  0
 46 11  1  0
 47  8  1  0
 61 27  1  0
 61 51  1  0
 62 29  1  0
 62 54  1  0
 63 40  1  0
 63 57  1  0
 64 44  1  0
 64 60  1  0
  2  3  2  0
  4  5  2  0
  6  7  2  0
  8  9  2  0
 10 11  2  0
 12 13  2  0
 14 15  2  0
 16 17  2  0
 18 19  2  0
 20 21  2  0
 22 23  2  0
 24 25  2  0
 26 27  2  0
 28 29  2  0
 30 31  2  0
 32 33  2  0
 34 35  2  0
 36 37  2  0
 38 39  2  0
 40 41  2  0
 42 43  2  0
 44 45  2  0
 46 47  2  0
 61 49  2  0
 61 50  2  0
 62 52  2  0
 62 53  2  0
 63 55  2  0
 63 56  2  0
 64 58  2  0
 64 59  2  0
M  END
> <Name>
CHEMBL2009235

> <rmsd>
0.500015736

$$$$
CHEMBL3905700 PubChem-73296166
  SciTegic06052412183D

 56 63  0  0  0  0            999 V2000
   80.6059   -9.0487    4.7539 C   0  0
   81.6685   -8.5882    5.6883 C   0  0
   82.9790   -9.0655    5.6674 C   0  0
   83.5755   -8.3649    6.6900 C   0  0
   82.6383   -7.5420    7.2585 C   0  0
   82.9505   -6.7044    8.3260 C   0  0
   84.2723   -6.7234    8.8051 C   0  0
   85.2510   -7.5650    8.2129 C   0  0
   84.8926   -8.4028    7.1393 C   0  0
   87.1825   -6.8177    9.7414 C   0  0
   87.0174   -5.1419   11.4042 C   0  0
   88.3409   -5.3627   11.7779 C   0  0
   89.0680   -6.3454   11.0997 C   0  0
   91.0250   -6.3588   12.6477 C   0  0
   92.2849   -5.7602   12.6230 C   0  0
   92.9910   -5.5278   13.8019 C   0  0
   92.4629   -5.9028   15.0374 C   0  0
   91.1686   -6.4764   15.0942 C   0  0
   90.5670   -6.7959   16.3238 C   0  0
   89.3083   -7.3977   16.3713 C   0  0
   88.6319   -7.6879   15.1874 C   0  0
   89.2059   -7.3581   13.9565 C   0  0
   90.4563   -6.7254   13.8900 C   0  0
   93.5382   -6.6593   17.2101 C   0  0
   94.6846   -7.1612   19.4314 C   0  0
   94.3729   -8.5084   19.5178 C   0  0
   95.0602   -8.9137   20.6570 C   0  0
   96.1259   -5.5332   20.6919 C   0  0
   97.2095   -5.4420   21.5829 C   0  0
   97.8167   -4.2092   21.8390 C   0  0
   97.3414   -3.0436   21.2161 C   0  0
   96.2674   -3.1338   20.3260 C   0  0
   95.6631   -4.3682   20.0630 C   0  0
   98.9462   -1.5713   22.4230 C   0  0
   98.3371   -1.3385   23.7982 C   0  0
   99.0021   -2.4399   25.7456 C   0  0
   98.7310   -3.6194   26.6818 C   0  0
   96.6502   -3.9303   25.8439 C   0  0
   96.8095   -2.7700   24.8559 C   0  0
   95.1435  -10.3282   21.1657 C   0  0
   95.5478  -10.3543   22.6301 C   0  0
   96.1744  -11.0922   20.3597 C   0  0
   93.8004  -11.0276   21.0308 C   0  0
   81.4469   -7.6627    6.6545 N   0  0
   86.6047   -7.5963    8.6846 N   0  0
   86.4624   -5.8711   10.4001 N   0  0
   88.4759   -7.0390   10.0917 N   0  0
   93.2634   -5.6755   16.2073 N   0  0
   94.2812   -6.2774   18.3742 N   0  0
   95.7626   -7.8853   21.1758 N   0  0
   95.5174   -6.8139   20.4380 N   0  0
   98.2267   -2.5969   24.5177 N   0  0
   90.4042   -6.6218   11.4160 O   0  0
   93.1808   -7.8549   17.0416 O   0  0
   97.9204   -1.7914   21.4580 O   0  0
   97.3651   -3.6459   27.0240 O   0  0
  1  2  1  0
  3  4  1  0
  5 44  1  0
  5  6  1  0
  7  8  1  0
  8 45  1  0
  9  4  1  0
 10 47  1  0
 11 46  1  0
 12 13  1  0
 13 53  1  0
 14 53  1  0
 15 16  1  0
 17 18  1  0
 17 48  1  0
 19 20  1  0
 21 22  1  0
 23 14  1  0
 23 18  1  0
 24 49  1  0
 26 27  1  0
 29 30  1  0
 31 32  1  0
 31 55  1  0
 33 28  1  0
 34 55  1  0
 34 35  1  0
 35 52  1  0
 36 52  1  0
 36 37  1  0
 37 56  1  0
 38 56  1  0
 38 39  1  0
 39 52  1  0
 40 27  1  0
 40 41  1  0
 40 42  1  0
 40 43  1  0
 44  2  1  0
 45 10  1  0
 48 24  1  0
 49 25  1  0
 51 50  1  0
 51 28  1  0
 51 25  1  0
  2  3  2  0
  4  5  2  0
  6  7  2  0
  8  9  2  0
 10 46  2  0
 11 12  2  0
 13 47  2  0
 14 15  2  0
 16 17  2  0
 18 19  2  0
 20 21  2  0
 22 23  2  0
 24 54  2  0
 25 26  2  0
 27 50  2  0
 28 29  2  0
 30 31  2  0
 32 33  2  0
M  END
> <Name>
CHEMBL3905700 PubChem-73296166

> <rmsd>
0.580209255

$$$$
CHEMBL3770281 PubChem-127029347
  SciTegic06052412183D

 62 70  0  0  0  0            999 V2000
  102.5460    1.7502   20.1569 C   0  0
  101.9538    1.6630   18.8780 C   0  0
  100.8234    0.8551   18.6648 C   0  0
  100.3155    0.1627   19.7610 C   0  0
  100.8881    0.2408   21.0124 C   0  0
  102.0169    1.0291   21.2429 C   0  0
   99.2331   -1.1325   21.1893 C   0  0
   99.2707   -0.7203   19.8713 C   0  0
   98.4038   -1.2181   18.9093 C   0  0
   97.4741   -2.1873   19.3257 C   0  0
   98.2596   -2.0669   21.5968 C   0  0
   98.0418   -2.4657   22.9982 C   0  0
   97.8915   -3.8184   23.3221 C   0  0
   97.6181   -4.2256   24.6339 C   0  0
   97.4825   -3.2456   25.6484 C   0  0
   97.6003   -1.8876   25.3073 C   0  0
   97.8660   -1.5011   23.9936 C   0  0
   97.0567   -2.6751   28.0222 C   0  0
   97.1037   -6.1919   26.0939 C   0  0
   96.4662   -2.7448   18.3684 C   0  0
   96.5562   -1.7702   16.1942 C   0  0
   95.0498   -1.8563   15.8760 C   0  0
   95.6417   -4.1327   15.3449 C   0  0
   96.6442   -4.2052   16.5004 C   0  0
   93.6321   -3.1854   14.5779 C   0  0
   92.5602   -4.2358   14.6563 C   0  0
   90.6133   -5.1986   13.6173 C   0  0
   90.5445   -6.1425   14.6607 C   0  0
   91.4965   -6.1199   15.6619 C   0  0
   92.5194   -5.1810   15.6985 C   0  0
   91.1805   -7.1338   16.5329 C   0  0
   90.0391   -7.7268   16.0373 C   0  0
   88.3957   -7.4155   14.1728 C   0  0
   87.1891   -6.8559   14.9116 C   0  0
   87.1640   -5.3412   14.8260 C   0  0
   85.9492   -4.8150   15.5629 C   0  0
   89.4320   -8.7957   16.7005 C   0  0
   90.0289   -9.2533   17.8898 C   0  0
   91.1992   -8.6417   18.3900 C   0  0
   91.7915   -7.5616   17.7102 C   0  0
   89.7066   -5.1849   12.4585 C   0  0
   89.0801   -3.9932   12.0855 C   0  0
   88.2768   -3.9492   10.9463 C   0  0
   88.0954   -5.0857   10.1485 C   0  0
   88.7453   -6.2926   10.5071 C   0  0
   89.5546   -6.3197   11.6550 C   0  0
   89.1935   -8.6915   10.0633 C   0  0
   86.9879   -5.9822    8.0914 C   0  0
  100.6820   -0.8403   23.2608 C   0  0
  101.8484   -1.8181   23.2549 C   0  0
  101.3808   -3.2099   22.8684 C   0  0
  102.5690   -4.1491   22.8156 C   0  0
  100.2393   -0.5505   21.8986 N   0  0
   97.4191   -2.5659   20.6404 N   0  0
   97.0273   -2.8854   17.0291 N   0  0
   94.5532   -3.2291   15.7074 N   0  0
   91.6198   -4.2735   13.6631 N   0  0
   89.6307   -7.1243   14.8955 N   0  0
   97.2333   -3.6195   26.9751 O   0  0
   97.4888   -5.6050   24.8594 O   0  0
   88.5907   -7.4462    9.7299 O   0  0
   87.2708   -4.9489    9.0225 O   0  0
  2  3  1  0
  4  5  1  0
  5 53  1  0
  6  1  1  0
  8  9  1  0
  8  4  1  0
 10 54  1  0
 11 12  1  0
 11  7  1  0
 13 14  1  0
 14 60  1  0
 15 16  1  0
 15 59  1  0
 17 12  1  0
 18 59  1  0
 19 60  1  0
 20 10  1  0
 20 55  1  0
 21 55  1  0
 21 22  1  0
 22 56  1  0
 23 56  1  0
 23 24  1  0
 24 55  1  0
 25 56  1  0
 25 26  1  0
 27 57  1  0
 27 41  1  0
 28 29  1  0
 29 31  1  0
 30 26  1  0
 32 58  1  0
 32 37  1  0
 33 58  1  0
 33 34  1  0
 34 35  1  0
 35 36  1  0
 38 39  1  0
 40 31  1  0
 42 43  1  0
 44 45  1  0
 44 62  1  0
 45 61  1  0
 46 41  1  0
 47 61  1  0
 48 62  1  0
 49 53  1  0
 49 50  1  0
 50 51  1  0
 51 52  1  0
 53  7  1  0
 58 28  1  0
  1  2  2  0
  3  4  2  0
  5  6  2  0
  7  8  2  0
  9 10  2  0
 11 54  2  0
 12 13  2  0
 14 15  2  0
 16 17  2  0
 26 57  2  0
 27 28  2  0
 29 30  2  0
 31 32  2  0
 37 38  2  0
 39 40  2  0
 41 42  2  0
 43 44  2  0
 45 46  2  0
M  END
> <Name>
CHEMBL3770281 PubChem-127029347

> <rmsd>
0.594896138

$$$$
CHEMBL375283 PubChem-16066781
  SciTegic06052412183D

 68 74  0  0  0  0            999 V2000
   91.6482   -6.1663   16.5232 C   0  0
   90.9290   -7.3165   16.8878 C   0  0
   90.2849   -8.0934   15.9248 C   0  0
   90.3435   -7.7413   14.5702 C   0  0
   91.0586   -6.5934   14.1844 C   0  0
   91.7125   -5.7994   15.1582 C   0  0
   92.4320   -4.6477   14.7594 C   0  0
   92.4841   -4.3136   13.3968 C   0  0
   91.8384   -5.0993   12.4426 C   0  0
   91.1231   -6.2411   12.8249 C   0  0
   90.4743   -7.0439   11.8727 C   0  0
   89.7039   -8.5168   13.5900 C   0  0
   89.0684   -9.0223   11.2946 C   0  0
   89.9359   -9.4764   10.1203 C   0  0
   90.8517  -11.4757   10.4515 C   0  0
   91.6634  -12.0480    9.3006 C   0  0
   93.6328  -13.0622    9.1476 C   0  0
   94.4138  -12.8577    7.8585 C   0  0
   93.7805  -11.7127    6.0735 C   0  0
   87.7320   -8.4287   10.8543 C   0  0
   86.8232   -6.4732   10.3572 C   0  0
   87.2738   -5.2992   11.2127 C   0  0
   85.9618   -4.6966   12.8932 C   0  0
   84.5234   -5.1217   13.1213 C   0  0
   83.8008   -6.5745   14.6220 C   0  0
   93.0875   -3.8606   15.7272 C   0  0
   93.8122   -2.7140   15.3617 C   0  0
   94.4695   -1.9460   16.3227 C   0  0
   94.4188   -2.3039   17.6761 C   0  0
   93.6983   -3.4477   18.0634 C   0  0
   93.0286   -4.2313   17.0920 C   0  0
   92.3095   -5.3835   17.4907 C   0  0
   92.2724   -5.7279   18.8520 C   0  0
   92.9334   -4.9516   19.8048 C   0  0
   93.6499   -3.8100   19.4212 C   0  0
   94.3274   -3.0265   20.3684 C   0  0
   95.0859   -1.5466   18.6519 C   0  0
   95.7666   -1.1641   21.0087 C   0  0
   97.2705   -1.1973   20.7617 C   0  0
   98.9747   -2.2136   21.7163 C   0  0
   98.9766   -2.9135   23.0621 C   0  0
   98.0089   -3.1563   25.0311 C   0  0
   96.8517   -2.7780   25.9294 C   0  0
   96.2331   -2.7452   28.0484 C   0  0
   95.2571    0.2722   21.1242 C   0  0
   96.6856    1.6262   22.1555 C   0  0
   97.7745    1.3068   23.1628 C   0  0
   97.5490    0.7369   25.2936 C   0  0
   98.7716    0.9198   26.1767 C   0  0
  100.0092   -0.7924   26.8265 C   0  0
   90.5423   -6.7273   10.6518 O   0  0
   89.0570   -9.5466   13.9371 O   0  0
   91.0958  -10.1046   10.5841 O   0  0
   93.0275  -11.8660    9.5401 O   0  0
   93.5410  -12.8990    6.7692 O   0  0
   87.9179   -7.2911   10.0661 O   0  0
   86.1756   -4.4959   11.5271 O   0  0
   84.2875   -5.2753   14.4891 O   0  0
   94.2851   -3.3525   21.5893 O   0  0
   95.7374   -0.5233   18.3031 O   0  0
   97.7760   -2.4642   21.0501 O   0  0
   97.9669   -2.3861   23.8695 O   0  0
   96.9167   -3.5182   27.1097 O   0  0
   95.5824    0.8026   22.3801 O   0  0
   97.4342    1.8201   24.4168 O   0  0
   98.8267   -0.1082   27.1180 O   0  0
   89.7781   -8.1662   12.2651 N   0  0
   95.0359   -1.9189   19.9764 N   0  0
  2  3  1  0
  4  5  1  0
  6  7  1  0
  6  1  1  0
  7 26  1  0
  8  9  1  0
 10 11  1  0
 10  5  1  0
 11 67  1  0
 12  4  1  0
 13 67  1  0
 13 14  1  0
 13 20  1  0
 14 53  1  0
 15 53  1  0
 15 16  1  0
 16 54  1  0
 17 54  1  0
 17 18  1  0
 18 55  1  0
 19 55  1  0
 20 56  1  0
 21 56  1  0
 21 22  1  0
 22 57  1  0
 23 57  1  0
 23 24  1  0
 24 58  1  0
 25 58  1  0
 27 28  1  0
 29 30  1  0
 30 31  1  0
 31 26  1  0
 32 33  1  0
 32  1  1  0
 34 35  1  0
 35 36  1  0
 36 68  1  0
 37 29  1  0
 38 68  1  0
 38 39  1  0
 38 45  1  0
 39 61  1  0
 40 61  1  0
 40 41  1  0
 41 62  1  0
 42 62  1  0
 42 43  1  0
 43 63  1  0
 44 63  1  0
 45 64  1  0
 46 64  1  0
 46 47  1  0
 47 65  1  0
 48 65  1  0
 48 49  1  0
 49 66  1  0
 50 66  1  0
 67 12  1  0
 68 37  1  0
  1  2  2  0
  3  4  2  0
  5  6  2  0
  7  8  2  0
  9 10  2  0
 11 51  2  0
 12 52  2  0
 26 27  2  0
 28 29  2  0
 31 32  2  0
 33 34  2  0
 35 30  2  0
 36 59  2  0
 37 60  2  0
M  END
> <Name>
CHEMBL375283 PubChem-16066781

> <rmsd>
0.500476658

$$$$
CHEMBL3144367 PubChem-90663916
  SciTegic06052412183D

 93104  0  0  0  0            999 V2000
   99.7843   -1.7395   20.1349 N   0  0
  101.8351   -0.9390   20.6764 N   0  0
  102.6397   -2.1320   17.3237 N   0  0
  100.3603   -2.4779   17.9057 N   0  0
  104.2027   -1.0954   18.8609 N   0  0
   91.1412   -5.9025   16.7851 N   0  0
   90.1153   -7.6564   15.7837 N   0  0
   91.8948   -6.3834   12.8639 N   0  0
   92.2729   -5.0749   14.8144 N   0  0
   90.5367   -8.3775   12.9069 N   0  0
   87.7751   -5.9603   11.5214 N   0  0
   88.1521   -7.1003    9.6052 N   0  0
   87.5164   -9.9665   11.7808 N   0  0
   87.3603   -7.8899   12.9246 N   0  0
   88.0518  -10.0771    9.4160 N   0  0
   82.0279   -7.7007    8.1077 N   0  0
   79.9599   -8.2491    7.3560 N   0  0
   78.9681   -6.8993   10.6050 N   0  0
   81.3215   -6.8215   10.2592 N   0  0
   77.4528   -7.7871    8.9310 N   0  0
  100.6303   -1.9311   19.1113 C   0  0
  101.8546   -1.4771   19.4443 C   0  0
  100.5410   -1.1050   21.0683 C   0  0
  102.9008   -1.5700   18.5408 C   0  0
  101.3824   -2.5757   17.0044 C   0  0
   98.3357   -1.9606   20.1804 C   0  0
   97.9506   -3.2739   19.5307 C   0  0
   94.4694   -3.2547   17.1432 C   0  0
   93.6517   -3.9497   18.2231 C   0  0
   91.7751   -5.1502   17.8632 C   0  0
   91.4344   -5.9049   15.4792 C   0  0
   90.8241   -6.9534   14.8846 C   0  0
   90.3389   -6.9829   16.9473 C   0  0
   91.0634   -7.2194   13.5405 C   0  0
   92.4909   -5.3201   13.4884 C   0  0
   91.3020   -3.7142   17.9718 C   0  0
   88.6396   -3.1057   14.9319 C   0  0
   88.3104   -4.5566   14.6280 C   0  0
   87.6902   -4.8483   12.4613 C   0  0
   87.6550   -7.2735   11.7533 C   0  0
   87.8774   -7.9508   10.6095 C   0  0
   88.0859   -5.8768   10.2048 C   0  0
   87.8090   -9.3343   10.6043 C   0  0
   87.2913   -9.2542   12.9326 C   0  0
   86.3962   -4.8987   13.2431 C   0  0
   84.3009   -5.2400   10.4090 C   0  0
   84.8422   -6.3070    9.4805 C   0  0
   83.4755   -7.5102    8.1203 C   0  0
   81.1165   -7.3959    9.0450 C   0  0
   79.8849   -7.7269    8.5962 C   0  0
   81.2951   -8.2158    7.0840 C   0  0
   78.7675   -7.4696    9.3795 C   0  0
   80.2302   -6.5760   11.0447 C   0  0
   83.8421   -6.2692    7.3407 C   0  0
   85.0023   -5.7164    8.0977 C   0  0
   86.8179   -4.7937   14.6816 C   0  0
   92.4813   -3.0734   18.6312 C   0  0
   97.8320   -4.2081   20.6879 C   0  0
   97.5944   -3.2917   21.8665 C   0  0
   98.4393   -3.7247   23.0548 C   0  0
   96.7030   -3.1368   18.9162 O   0  0
   97.4572   -2.4579   16.4973 O   0  0
   95.4421   -4.1269   16.6385 O   0  0
   93.1714   -5.1804   17.7339 O   0  0
   91.1139   -3.1295   16.7107 O   0  0
   89.5515   -1.6465   18.2807 O   0  0
   88.3857   -2.8303   16.2722 O   0  0
   88.7862   -4.8930   13.3488 O   0  0
   85.5888   -3.8083   12.9033 O   0  0
   83.5074   -4.8918   14.0735 O   0  0
   84.0406   -5.7719   11.6715 O   0  0
   83.9618   -7.4085    9.4392 O   0  0
   86.1865   -6.1831    7.5306 O   0  0
   82.9907   -3.2374   12.1206 O   0  0
   90.0806   -0.6795   15.9226 O   0  0
   98.0035   -4.9214   17.2175 O   0  0
   97.8843   -1.9567   21.5148 O   0  0
   99.8024   -3.5766   22.7598 O   0  0
  101.3921   -4.6941   24.5081 O   0  0
   99.5236   -3.2005   25.5656 O   0  0
   98.8188   -0.9068   24.4215 O   0  0
   97.9788   -1.2978   26.8950 O   0  0
   95.4833   -1.8924   27.3462 O   0  0
   96.9101   -3.7961   26.2862 O   0  0
   96.1123   -1.5710   24.8328 O   0  0
  100.6042   -0.7573   26.3215 O   0  0
  101.7117   -2.1423   24.1539 O   0  0
   96.9180   -3.6192   17.3040 P   0  0
   89.7849   -2.0688   16.8436 P   0  0
   84.0198   -4.4402   12.7241 P   0  0
  100.6034   -3.4230   24.2561 P   0  0
   99.2122   -1.5339   25.7475 P   0  0
   96.6001   -2.1341   26.3573 P   0  0
  1 21  1  0
  6 31  1  0
 11 40  1  0
 16 49  1  0
 21  4  1  0
 22  2  1  0
 22 24  1  0
 23  1  1  0
 24  5  1  0
 25  3  1  0
 26  1  1  0
 26 27  1  0
 26 77  1  0
 27 61  1  0
 27 58  1  0
 28 63  1  0
 29 28  1  0
 29 64  1  0
 30 64  1  0
 30  6  1  0
 30 36  1  0
 31  9  1  0
 32  7  1  0
 32 34  1  0
 33  6  1  0
 34 10  1  0
 35  8  1  0
 36 65  1  0
 36 57  1  0
 37 67  1  0
 38 37  1  0
 38 68  1  0
 39 68  1  0
 39 11  1  0
 39 45  1  0
 40 14  1  0
 41 12  1  0
 41 43  1  0
 42 11  1  0
 43 15  1  0
 44 13  1  0
 45 69  1  0
 45 56  1  0
 46 71  1  0
 47 46  1  0
 47 72  1  0
 48 72  1  0
 48 16  1  0
 48 54  1  0
 49 19  1  0
 50 17  1  0
 50 52  1  0
 51 16  1  0
 52 20  1  0
 53 18  1  0
 54 55  1  0
 55 73  1  0
 55 47  1  0
 56 38  1  0
 57 29  1  0
 58 59  1  0
 59 77  1  0
 59 60  1  0
 60 78  1  0
 88 61  1  0
 88 63  1  0
 88 76  1  0
 89 65  1  0
 89 67  1  0
 89 75  1  0
 90 69  1  0
 90 71  1  0
 90 74  1  0
 91 78  1  0
 91 80  1  0
 91 87  1  0
 92 80  1  0
 92 82  1  0
 92 86  1  0
 93 82  1  0
 93 84  1  0
 93 85  1  0
 21 22  2  0
 23  2  2  0
 24  3  2  0
 25  4  2  0
 31 32  2  0
 33  7  2  0
 34  8  2  0
 35  9  2  0
 40 41  2  0
 42 12  2  0
 43 13  2  0
 44 14  2  0
 49 50  2  0
 51 17  2  0
 52 18  2  0
 53 19  2  0
 88 62  2  0
 89 66  2  0
 90 70  2  0
 91 79  2  0
 92 81  2  0
 93 83  2  0
M  END
> <Name>
CHEMBL3144367 PubChem-90663916

> <rmsd>
0.629406154

$$$$
CHEMBL2087577
  SciTegic06052412183D

 78 87  0  0  0  0            999 V2000
   97.8674   -9.6442   23.6892 C   0  0
   96.4676   -9.6571   23.0431 C   0  0
   96.5649   -9.8010   21.5208 C   0  0
   97.6810   -8.9041   20.9447 C   0  0
   98.9255   -8.9047   21.8506 C   0  0
   96.1418   -7.2276   19.9547 C   0  0
   95.6828   -5.8251   19.8824 C   0  0
   96.5444   -4.8133   20.3270 C   0  0
   96.1841   -3.4699   20.2295 C   0  0
   94.9400   -3.1190   19.6977 C   0  0
   94.0505   -4.1153   19.2720 C   0  0
   94.4193   -5.4746   19.3544 C   0  0
   92.8434   -6.5144   17.7478 C   0  0
   91.6341   -7.2211   17.6498 C   0  0
   90.9239   -7.2566   16.4264 C   0  0
   89.6751   -7.9049   16.2619 C   0  0
   89.5493   -7.2669   14.0140 C   0  0
   88.8509   -7.2618   12.8042 C   0  0
   89.3917   -6.6119   11.6835 C   0  0
   90.6387   -5.9631   11.7682 C   0  0
   91.3410   -5.9563   12.9803 C   0  0
   90.7848   -6.6122   14.0953 C   0  0
   91.4719   -6.5981   15.3070 C   0  0
   92.7027   -5.9207   15.3919 C   0  0
   93.3748   -5.8780   16.6164 C   0  0
   93.2128   -5.3003   14.2309 C   0  0
   96.6413  -11.6386   19.8698 C   0  0
   97.1991  -12.9411   19.4769 C   0  0
   97.0743  -13.3973   18.1562 C   0  0
   97.6183  -14.6270   17.7730 C   0  0
   98.2888  -15.4157   18.7165 C   0  0
   98.4125  -14.9725   20.0421 C   0  0
   97.8717  -13.7347   20.4168 C   0  0
   95.4189   -8.1330   24.6443 C   0  0
   95.9108   -6.9076   25.3070 C   0  0
   96.1819   -6.8562   26.6974 C   0  0
   96.0448   -8.0694   27.5372 C   0  0
   96.9978   -9.1146   27.4628 C   0  0
   96.7502  -10.3185   28.1302 C   0  0
   95.5895  -10.4892   28.8907 C   0  0
   94.6624   -9.4467   28.9976 C   0  0
   94.8854   -8.2410   28.3182 C   0  0
   98.2892   -8.9587   26.7576 C   0  0
   97.9275  -10.5484   24.9072 C   0  0
   96.6621   -5.6604   27.2690 C   0  0
   96.8953   -4.5380   26.4627 C   0  0
   96.6562   -4.6053   25.0865 C   0  0
   96.1676   -5.7823   24.5163 C   0  0
   98.8884   -9.9647   22.7753 O   0  0
  100.0754   -9.0093   21.0656 O   0  0
   97.2174   -7.5642   20.7874 O   0  0
   95.5792   -8.1139   19.2539 O   0  0
   93.5183   -6.4815   18.9748 O   0  0
   91.1505   -7.8776   18.7762 O   0  0
   89.1283   -8.5139   17.2237 O   0  0
   89.0507   -7.8779   15.0834 O   0  0
   94.3283   -4.7116   14.2564 O   0  0
   92.5243   -5.3411   13.0887 O   0  0
   91.1723   -5.3307   10.6515 O   0  0
   88.6864   -6.6174   10.4858 O   0  0
   92.8018   -3.7538   18.7811 O   0  0
   94.5784   -1.7793   19.6006 O   0  0
   97.0657   -2.4884   20.6668 O   0  0
   96.8177  -11.1595   21.1722 O   0  0
   96.0118  -10.9529   19.0236 O   0  0
   99.0765  -15.7503   20.9843 O   0  0
   98.8384  -16.6339   18.3344 O   0  0
   97.4828  -15.0635   16.4599 O   0  0
   95.8314   -8.4229   23.3473 O   0  0
   94.6637   -8.9428   25.2506 O   0  0
   93.9407   -7.2228   28.4003 O   0  0
   93.5107   -9.6170   29.7598 O   0  0
   95.3653  -11.6923   29.5489 O   0  0
   99.0046   -7.9439   26.9903 O   0  0
   98.7658   -9.9459   25.8867 O   0  0
   96.9127   -3.5073   24.2755 O   0  0
   97.3801   -3.3592   27.0287 O   0  0
   96.9281   -5.5894   28.6343 O   0  0
  1  2  1  0
  1 49  1  0
  1 44  1  0
  2  3  1  0
  2 69  1  0
  3  4  1  0
  3 64  1  0
  4  5  1  0
  4 51  1  0
  5 49  1  0
  5 50  1  0
  6 51  1  0
  6  7  1  0
  8  9  1  0
  9 63  1  0
 10 11  1  0
 10 62  1  0
 11 61  1  0
 12 53  1  0
 12  7  1  0
 13 53  1  0
 14 54  1  0
 14 15  1  0
 15 16  1  0
 16 56  1  0
 17 56  1  0
 18 19  1  0
 19 60  1  0
 20 21  1  0
 20 59  1  0
 21 58  1  0
 22 23  1  0
 22 17  1  0
 23 24  1  0
 24 26  1  0
 25 13  1  0
 26 58  1  0
 27 64  1  0
 27 28  1  0
 29 30  1  0
 30 68  1  0
 31 32  1  0
 31 67  1  0
 32 66  1  0
 33 28  1  0
 34 69  1  0
 34 35  1  0
 36 37  1  0
 36 45  1  0
 38 39  1  0
 38 43  1  0
 40 41  1  0
 40 73  1  0
 41 72  1  0
 42 71  1  0
 42 37  1  0
 43 75  1  0
 44 75  1  0
 45 78  1  0
 46 47  1  0
 46 77  1  0
 47 76  1  0
 48 35  1  0
  6 52  2  0
  7  8  2  0
  9 10  2  0
 11 12  2  0
 13 14  2  0
 16 55  2  0
 17 18  2  0
 19 20  2  0
 21 22  2  0
 23 15  2  0
 24 25  2  0
 26 57  2  0
 27 65  2  0
 28 29  2  0
 30 31  2  0
 32 33  2  0
 34 70  2  0
 35 36  2  0
 37 38  2  0
 39 40  2  0
 41 42  2  0
 43 74  2  0
 45 46  2  0
 47 48  2  0
M  END
> <Name>
CHEMBL2087577

> <rmsd>
0.622681737

$$$$
CHEMBL293969 PubChem-11260976
  SciTegic06052412183D

 39 44  0  0  0  0            999 V2000
   96.6064   -2.4793   27.4935 C   0  0
   97.1190   -3.2531   25.2000 C   0  0
   97.4327   -4.3238   24.3531 C   0  0
   97.6432   -4.1149   22.9858 C   0  0
   97.5413   -2.8277   22.4546 C   0  0
   97.6447   -1.3581   20.5813 C   0  0
   98.1997   -2.2194   18.2739 C   0  0
   98.2938   -1.6861   16.8539 C   0  0
   96.9236   -1.2850   16.3249 C   0  0
   95.1753   -2.6811   17.0526 C   0  0
   93.8830   -1.9273   16.7664 C   0  0
   93.1435   -2.5279   15.5809 C   0  0
   91.8725   -4.6291   15.0054 C   0  0
   90.8471   -4.8963   12.8697 C   0  0
   90.5552   -4.3946   11.5996 C   0  0
   89.8064   -5.1630   10.7018 C   0  0
   89.3419   -6.4398   11.0665 C   0  0
   88.2585   -6.8021    8.8719 C   0  0
   89.6323   -6.9428   12.3398 C   0  0
   90.3833   -6.1794   13.2435 C   0  0
   90.3752   -7.7888   15.0859 C   0  0
   90.9162   -7.7856   16.3676 C   0  0
   91.5816   -6.5740   16.5486 C   0  0
   91.4087   -5.8985   15.3590 C   0  0
   97.3238   -0.2954   21.4293 C   0  0
   97.1601    1.0362   21.1101 C   0  0
   96.8451    1.6535   22.3195 C   0  0
   96.8321    0.6750   23.3085 C   0  0
   97.2218   -1.7402   23.3009 C   0  0
   97.0125   -1.9566   24.6687 C   0  0
   96.9190   -3.5046   26.5607 O   0  0
   88.5928   -7.2259   10.1864 O   0  0
   97.7449   -2.6088   21.1219 N   0  0
   97.8601   -1.1395   19.1863 N   0  0
   96.1439   -2.4671   15.9867 N   0  0
   92.6313   -3.8443   15.9280 N   0  0
   91.5758   -4.1570   13.7573 N   0  0
   90.6915   -6.6261   14.4912 N   0  0
   97.1267   -0.5056   22.7379 N   0  0
  1 31  1  0
  2 31  1  0
  3  4  1  0
  5 33  1  0
  6 34  1  0
  6 25  1  0
  7 34  1  0
  7  8  1  0
  8  9  1  0
  9 35  1  0
 10 35  1  0
 10 11  1  0
 11 12  1  0
 12 36  1  0
 14 37  1  0
 15 16  1  0
 17 32  1  0
 17 19  1  0
 18 32  1  0
 20 38  1  0
 20 14  1  0
 22 23  1  0
 24 13  1  0
 24 38  1  0
 26 27  1  0
 28 39  1  0
 29  5  1  0
 30  2  1  0
 36 13  1  0
 38 21  1  0
 39 29  1  0
 39 25  1  0
  2  3  2  0
  4  5  2  0
  6 33  2  0
 13 37  2  0
 14 15  2  0
 16 17  2  0
 19 20  2  0
 21 22  2  0
 23 24  2  0
 25 26  2  0
 27 28  2  0
 29 30  2  0
M  END
> <Name>
CHEMBL293969 PubChem-11260976

> <rmsd>
0.594421566

$$$$
CHEMBL214603 PubChem-10079983
  SciTegic06052412183D

 76 84  0  0  0  0            999 V2000
   90.8163   -8.2086    8.8996 N   0  0
   90.8408   -6.6459    7.2536 N   0  0
   88.0524   -5.2972    9.1815 N   0  0
   88.9508   -7.2818   10.1345 N   0  0
   88.9559   -4.3265    7.1546 N   0  0
   91.1214   -7.2559   16.1655 N   0  0
   89.2103   -6.2657   15.4787 N   0  0
   91.4429   -4.8777   12.9332 N   0  0
   92.5671   -6.3114   14.4645 N   0  0
   89.0662   -4.4242   13.1246 N   0  0
   96.3938   -7.0782   21.4672 N   0  0
   95.5849   -9.1742   21.1955 N   0  0
   92.9569   -7.9028   23.3896 N   0  0
   94.6350   -6.2772   22.9242 N   0  0
   93.0437  -10.1376   22.4513 N   0  0
   89.8655   -7.2932    9.1339 C   0  0
   89.8895   -6.3592    8.1594 C   0  0
   91.3831   -7.8017    7.7313 C   0  0
   88.9682   -5.3219    8.1713 C   0  0
   88.0382   -6.2649   10.1552 C   0  0
   87.0133   -6.2169   11.2291 C   0  0
   91.0311   -9.4830    9.5897 C   0  0
   92.4722   -9.9415    9.4778 C   0  0
   92.7600  -10.5526   10.8308 C   0  0
   91.4568  -10.3836   11.5785 C   0  0
   91.7245  -10.0131   13.0237 C   0  0
   92.6088   -9.1835   16.0048 C   0  0
   92.0322   -8.1144   16.9147 C   0  0
   91.3805   -6.4876   15.0996 C   0  0
   90.2389   -5.8979   14.6888 C   0  0
   89.7918   -7.1063   16.3824 C   0  0
   90.2494   -5.0673   13.5763 C   0  0
   92.5906   -5.4905   13.3690 C   0  0
   94.2432   -8.1120   17.3372 C   0  0
   94.0980   -9.0036   16.1304 C   0  0
   95.4371   -7.1937   17.1476 C   0  0
   96.5528   -4.7749   20.6344 C   0  0
   97.2660   -5.9184   21.3476 C   0  0
   95.2493   -7.2029   22.1483 C   0  0
   94.7638   -8.4516   21.9806 C   0  0
   96.5834   -8.2959   20.8984 C   0  0
   93.5854   -8.8285   22.6073 C   0  0
   93.4724   -6.6398   23.5490 C   0  0
   97.7382   -4.1015   22.5692 C   0  0
   96.6964   -3.6195   21.5913 C   0  0
   97.5173   -3.5131   23.9576 C   0  0
   90.7223   -9.3672   10.9544 O   0  0
   92.0147  -11.1664   13.7579 O   0  0
   89.9505  -10.1552   15.1090 O   0  0
   92.1914  -10.4432   16.4489 O   0  0
   93.0724   -7.3474   17.4726 O   0  0
   94.7644  -10.2166   16.3319 O   0  0
   95.8679   -6.7192   18.3892 O   0  0
   96.7652   -4.7526   16.8585 O   0  0
   97.1953   -4.5119   19.4175 O   0  0
   97.6837   -5.4993   22.6211 O   0  0
   97.1374   -2.4611   20.9517 O   0  0
   96.2473   -3.8476   24.4443 O   0  0
   95.1837   -4.8112   26.6115 O   0  0
   97.5322   -3.6371   26.8926 O   0  0
   96.3910   -4.4447   29.1186 O   0  0
   98.3139   -5.9872   28.2349 O   0  0
  100.4249   -7.2474   27.3477 O   0  0
  100.1552   -4.8001   26.4895 O   0  0
  100.8817   -5.3702   29.0969 O   0  0
   98.7819   -3.4733   29.3399 O   0  0
   97.2332   -6.1243   25.6505 O   0  0
   94.6586   -4.2316   18.3233 O   0  0
   90.6568  -12.5831   15.6957 O   0  0
   93.0854  -11.9091   10.7425 O   0  0
   92.5816  -10.8746    8.4447 O   0  0
   91.1688  -11.0420   15.2355 P   0  0
   96.1365   -5.0511   18.2022 P   0  0
   96.5188   -4.6155   25.9314 P   0  0
   97.7224   -4.3987   28.4047 P   0  0
   99.9511   -5.8785   27.7786 P   0  0
  1 16  1  0
  6 29  1  0
 11 39  1  0
 16  4  1  0
 17  2  1  0
 17 19  1  0
 18  1  1  0
 19  5  1  0
 20  3  1  0
 21 20  1  0
 22  1  1  0
 22 23  1  0
 22 47  1  0
 23 24  1  0
 23 71  1  0
 24 25  1  0
 24 70  1  0
 25 47  1  0
 25 26  1  0
 26 48  1  0
 27 50  1  0
 27 28  1  0
 28  6  1  0
 28 51  1  0
 29  9  1  0
 30  7  1  0
 30 32  1  0
 31  6  1  0
 32 10  1  0
 33  8  1  0
 34 51  1  0
 34 35  1  0
 34 36  1  0
 35 52  1  0
 35 27  1  0
 36 53  1  0
 37 55  1  0
 37 38  1  0
 38 11  1  0
 38 56  1  0
 39 14  1  0
 40 12  1  0
 40 42  1  0
 41 11  1  0
 42 15  1  0
 43 13  1  0
 44 56  1  0
 44 45  1  0
 44 46  1  0
 45 57  1  0
 45 37  1  0
 46 58  1  0
 72 48  1  0
 72 50  1  0
 72 69  1  0
 73 53  1  0
 73 55  1  0
 73 68  1  0
 74 58  1  0
 74 60  1  0
 74 67  1  0
 75 60  1  0
 75 62  1  0
 75 66  1  0
 76 62  1  0
 76 64  1  0
 76 65  1  0
 16 17  2  0
 18  2  2  0
 19  3  2  0
 20  4  2  0
 29 30  2  0
 31  7  2  0
 32  8  2  0
 33  9  2  0
 39 40  2  0
 41 12  2  0
 42 13  2  0
 43 14  2  0
 72 49  2  0
 73 54  2  0
 74 59  2  0
 75 61  2  0
 76 63  2  0
M  END
> <Name>
CHEMBL214603 PubChem-10079983

> <rmsd>
0.606146812

$$$$
CHEMBL3898648 PubChem-73295834
  SciTegic06052412183D

 55 62  0  0  0  0            999 V2000
   99.3088   -9.6228   14.7534 C   0  0
   99.7741   -8.9266   16.0213 C   0  0
   99.9790   -9.9574   17.1132 C   0  0
   98.8201   -7.8629   16.4835 C   0  0
   97.1277   -6.5356   16.7332 C   0  0
   97.5601   -7.6002   15.9615 C   0  0
   94.8571   -6.1765   15.6361 C   0  0
   92.5823   -5.6964   14.7133 C   0  0
   92.6200   -5.2515   13.3897 C   0  0
   91.5881   -5.5714   12.5068 C   0  0
   90.4961   -6.3447   12.9271 C   0  0
   90.4502   -6.7952   14.2587 C   0  0
   89.3775   -7.5790   14.7057 C   0  0
   89.3304   -8.0274   16.0275 C   0  0
   90.3548   -7.6970   16.9165 C   0  0
   91.4318   -6.9197   16.4855 C   0  0
   91.4932   -6.4635   15.1602 C   0  0
   89.1949   -6.1697   10.7805 C   0  0
   88.0467   -6.3759    8.7129 C   0  0
   89.3782   -4.4613    9.0995 C   0  0
   89.7133   -4.9358   10.3660 C   0  0
   86.4942   -8.3339    8.1215 C   0  0
   85.8103   -8.9819    7.0786 C   0  0
   85.1340  -10.1687    7.3593 C   0  0
   85.1228  -10.7078    8.6292 C   0  0
   84.3426  -11.9734    8.6599 C   0  0
   83.9357  -12.0391    7.2178 C   0  0
   85.7858  -10.0859    9.6835 C   0  0
   86.4729   -8.8903    9.4208 C   0  0
   98.0411   -5.1397   18.6112 C   0  0
   96.8656   -4.4146   18.8643 C   0  0
   96.8510   -3.3924   19.8160 C   0  0
   98.0095   -3.0772   20.5303 C   0  0
   99.1854   -3.8025   20.2880 C   0  0
   99.1989   -4.8262   19.3378 C   0  0
   99.0965   -1.6343   22.2305 C   0  0
   99.3059   -2.5749   23.4060 C   0  0
   97.4021   -3.5766   24.3489 C   0  0
   96.4045   -3.5252   25.5098 C   0  0
   97.8274   -2.3119   26.7915 C   0  0
   98.8981   -2.3033   25.6956 C   0  0
   99.1087   -7.0061   17.4821 N   0  0
   98.0746   -6.1984   17.6354 N   0  0
   95.8776   -5.8482   16.5829 N   0  0
   93.6682   -5.3854   15.5909 N   0  0
   88.3679   -6.8523    9.9459 N   0  0
   88.5594   -5.1883    8.2971 N   0  0
   87.1876   -7.1123    7.8324 N   0  0
   84.4076  -10.9485    6.4267 N   0  0
   98.2517   -2.3845   24.3859 N   0  0
   94.9869   -7.1682   14.8688 O   0  0
   89.4666   -6.7162   12.0447 O   0  0
   83.2583  -12.9818    6.7308 O   0  0
   97.9686   -2.0364   21.4620 O   0  0
   97.0980   -3.5164   26.7357 O   0  0
  1  2  1  0
  2  3  1  0
  2  4  1  0
  5 44  1  0
  6  4  1  0
  7 45  1  0
  9 10  1  0
 11 12  1  0
 11 52  1  0
 13 14  1  0
 15 16  1  0
 17  8  1  0
 17 12  1  0
 18 52  1  0
 19 46  1  0
 19 48  1  0
 20 47  1  0
 21 18  1  0
 23 24  1  0
 25 28  1  0
 26 25  1  0
 26 27  1  0
 27 49  1  0
 29 22  1  0
 31 32  1  0
 33 34  1  0
 33 54  1  0
 35 30  1  0
 36 54  1  0
 36 37  1  0
 37 50  1  0
 38 50  1  0
 38 39  1  0
 39 55  1  0
 40 55  1  0
 40 41  1  0
 41 50  1  0
 43 42  1  0
 43  5  1  0
 43 30  1  0
 44  7  1  0
 45  8  1  0
 48 22  1  0
 49 24  1  0
  4 42  2  0
  5  6  2  0
  7 51  2  0
  8  9  2  0
 10 11  2  0
 12 13  2  0
 14 15  2  0
 16 17  2  0
 18 46  2  0
 19 47  2  0
 20 21  2  0
 22 23  2  0
 24 25  2  0
 27 53  2  0
 28 29  2  0
 30 31  2  0
 32 33  2  0
 34 35  2  0
M  END
> <Name>
CHEMBL3898648 PubChem-73295834

> <rmsd>
0.384465843

$$$$
CHEMBL405267 PubChem-44326214
  SciTegic06052412183D

 94106  0  0  0  0            999 V2000
   88.5471   -4.4212   14.9077 C   0  0
   90.3831   -3.4339   16.5113 C   0  0
   91.6377   -4.1522   16.0249 C   0  0
   93.9227   -3.4706   17.0480 C   0  0
   93.9363   -4.4220   18.2096 C   0  0
   93.2255   -3.5192   20.4476 C   0  0
   94.5700   -2.8794   20.6684 C   0  0
   96.7195   -3.3356   21.9521 C   0  0
   97.4081   -3.9410   23.1483 C   0  0
   96.2145   -4.1708   25.3680 C   0  0
   96.9334   -2.9767   25.9255 C   0  0
   95.9846   -1.8330   26.1505 C   0  0
   95.5474   -1.0953   25.0467 C   0  0
   94.6397   -0.0336   25.1990 C   0  0
   94.2137    0.3019   22.7572 C   0  0
   94.3687   -1.0449   22.3986 C   0  0
   94.4091   -1.4321   21.0523 C   0  0
   94.2542   -0.4611   20.0553 C   0  0
   94.0758    0.8814   20.4035 C   0  0
   94.0566    1.2608   21.7498 C   0  0
   94.1935    0.3017   26.4860 C   0  0
   94.6210   -0.4364   27.5938 C   0  0
   95.5072   -1.5035   27.4276 C   0  0
   98.5828   -4.8621   22.7827 C   0  0
   98.1933   -5.9673   21.8559 C   0  0
   97.2912   -6.9562   22.2655 C   0  0
   96.8182   -7.8972   21.3500 C   0  0
   97.2102   -7.8145   20.0048 C   0  0
   95.4064   -7.9002   18.3946 C   0  0
   94.4405   -8.6707   17.7273 C   0  0
   93.2906   -8.0524   17.2095 C   0  0
   91.0053   -8.3035   16.3575 C   0  0
   90.4162   -8.4487   15.0933 C   0  0
   89.3267   -7.6424   14.7478 C   0  0
   88.7669   -6.7723   15.6906 C   0  0
   87.8055   -5.7242   15.2411 C   0  0
   89.2579   -6.7554   16.9981 C   0  0
   90.3661   -7.5238   17.3320 C   0  0
   93.1534   -6.6537   17.3148 C   0  0
   94.1273   -5.8794   17.9352 C   0  0
   95.2338   -6.5088   18.4852 C   0  0
   98.1849   -6.8862   19.6174 C   0  0
   98.6763   -5.9634   20.5438 C   0  0
   91.6233   -4.6367   14.6081 C   0  0
   91.2247   -3.8025   13.5590 C   0  0
   91.3387   -4.2293   12.2299 C   0  0
   90.7190   -3.4184   11.1700 C   0  0
   89.3178   -3.4149   11.0248 C   0  0
   88.4713   -4.2731   11.9230 C   0  0
   87.6129   -3.4987   14.1679 C   0  0
   87.7498   -5.3558   11.1826 C   0  0
   88.3064   -6.7490   11.2327 C   0  0
   87.4098   -7.8174   11.9283 C   0  0
   86.9622   -8.9732   11.0133 C   0  0
   88.0781   -9.4958   10.0979 C   0  0
   89.2484   -8.5241    9.9615 C   0  0
   85.7439   -8.5743   10.1874 C   0  0
   84.6040   -8.1672   11.1153 C   0  0
   85.0188   -6.9692   11.9646 C   0  0
   86.2565   -7.2973   12.8005 C   0  0
   88.7252   -2.6305   10.0250 C   0  0
   89.5183   -1.8615    9.1698 C   0  0
   90.9081   -1.8771    9.3036 C   0  0
   91.5128   -2.6522   10.2977 C   0  0
   91.8823   -5.4909   11.9479 C   0  0
   92.3262   -6.3023   12.9911 C   0  0
   92.2052   -5.8719   14.3131 C   0  0
   89.0337   -3.7625   16.1228 N   0  0
   92.8015   -3.2829   16.1710 N   0  0
   92.9105   -4.1592   19.2063 N   0  0
   95.3404   -3.6210   21.6702 N   0  0
   96.4673   -4.6168   24.0332 N   0  0
   97.6437   -3.3406   27.1427 N   0  0
   87.5757   -3.4680   12.7379 N   0  0
   88.7499   -7.1558    9.8973 N   0  0
   90.5246   -2.5716   17.4188 O   0  0
   94.9501   -2.7603   16.8689 O   0  0
   92.3556   -3.4826   21.3574 O   0  0
   97.3636   -2.5456   21.2093 O   0  0
   95.3791   -4.7902   26.0776 O   0  0
   94.1878    0.7155   24.0994 O   0  0
   93.9164    1.8418   19.4120 O   0  0
   93.3180    1.3646   26.6699 O   0  0
   96.4968   -8.5149   19.0290 O   0  0
   92.2805   -8.8249   16.6086 O   0  0
   86.8112   -5.5125   16.2029 O   0  0
   94.5985  -10.0483   17.6203 O   0  0
   86.8152   -2.7667   14.8140 O   0  0
   86.7826   -5.0932   10.4842 O   0  0
   92.8974   -2.6518   10.4144 O   0  0
   88.9243   -1.0861    8.1844 O   0  0
   91.9751   -5.9498   10.6395 O   0  0
   91.1298   -9.4880   13.8747 Cl  0  0
   95.6119   -9.0601   21.8681 Cl  0  0
  1 68  1  0
  1 50  1  0
  3  2  1  0
  3 69  1  0
  3 44  1  0
  5  4  1  0
  5 70  1  0
  5 40  1  0
  7  6  1  0
  7 71  1  0
  7 17  1  0
  9  8  1  0
  9 72  1  0
  9 24  1  0
 11 10  1  0
 11 12  1  0
 11 73  1  0
 13 14  1  0
 14 81  1  0
 15 81  1  0
 16 17  1  0
 18 19  1  0
 19 82  1  0
 20 15  1  0
 21 22  1  0
 21 83  1  0
 23 12  1  0
 24 25  1  0
 26 27  1  0
 27 94  1  0
 28 84  1  0
 28 42  1  0
 29 84  1  0
 30 31  1  0
 30 87  1  0
 31 85  1  0
 32 85  1  0
 33 34  1  0
 33 93  1  0
 35 37  1  0
 36 35  1  0
 36 86  1  0
 36  1  1  0
 38 32  1  0
 39 40  1  0
 41 29  1  0
 43 25  1  0
 45 46  1  0
 46 47  1  0
 48 61  1  0
 49 48  1  0
 49 74  1  0
 49 51  1  0
 52 51  1  0
 52 53  1  0
 52 75  1  0
 53 54  1  0
 54 55  1  0
 54 57  1  0
 55 56  1  0
 56 75  1  0
 57 58  1  0
 58 59  1  0
 59 60  1  0
 60 53  1  0
 62 63  1  0
 62 91  1  0
 64 90  1  0
 64 47  1  0
 65 66  1  0
 65 92  1  0
 67 44  1  0
 68  2  1  0
 69  4  1  0
 70  6  1  0
 71  8  1  0
 72 10  1  0
 74 50  1  0
  2 76  2  0
  4 77  2  0
  6 78  2  0
  8 79  2  0
 10 80  2  0
 12 13  2  0
 14 21  2  0
 15 16  2  0
 17 18  2  0
 19 20  2  0
 22 23  2  0
 25 26  2  0
 27 28  2  0
 29 30  2  0
 31 39  2  0
 32 33  2  0
 34 35  2  0
 37 38  2  0
 40 41  2  0
 42 43  2  0
 44 45  2  0
 46 65  2  0
 47 48  2  0
 50 88  2  0
 51 89  2  0
 61 62  2  0
 63 64  2  0
 66 67  2  0
M  END
> <Name>
CHEMBL405267 PubChem-44326214

> <rmsd>
0.608101368

$$$$
CHEMBL3785336 PubChem-127031927
  SciTegic06052412183D

 50 53  0  0  0  0            999 V2000
   91.0675   -1.0656   20.6724 C   0  0
   89.5881   -1.2550   20.3673 C   0  0
   91.4967    0.2689   20.0850 C   0  0
   91.9296   -2.1802   20.1077 C   0  0
   93.3159   -2.1508   20.3007 C   0  0
   94.1502   -3.1611   19.8080 C   0  0
   93.5819   -4.2395   19.0821 C   0  0
   92.1773   -4.3047   18.9418 C   0  0
   91.3753   -3.2697   19.4258 C   0  0
   91.8677   -6.7760   18.4388 C   0  0
   91.3341   -7.7852   17.5075 C   0  0
   90.7387   -7.4044   16.2096 C   0  0
   89.4663   -7.8995   15.9010 C   0  0
   88.8462   -7.5752   14.6947 C   0  0
   89.4866   -6.7495   13.7614 C   0  0
   90.7726   -6.2580   14.0438 C   0  0
   91.4096   -6.5878   15.2699 C   0  0
   92.7150   -6.1230   15.5065 C   0  0
   93.3717   -5.3276   14.5651 C   0  0
   92.7338   -4.9900   13.3705 C   0  0
   91.4416   -5.4537   13.1099 C   0  0
   87.5717   -6.8857   12.1920 C   0  0
   87.2458   -6.4649   10.7701 C   0  0
   89.1708   -6.3491    9.3708 C   0  0
   88.8129   -5.4857    8.1512 C   0  0
   87.0203   -6.6810    7.5967 C   0  0
   87.1969   -7.6955    8.7387 C   0  0
   95.7619   -5.2185   18.3105 C   0  0
   96.0607   -2.3666   22.8156 C   0  0
   94.6016   -2.1760   23.1836 C   0  0
   94.3520   -2.6217   24.6140 C   0  0
   93.9410   -0.8094   26.0403 C   0  0
   94.5141    0.5735   26.2991 C   0  0
   95.4320   -2.4931   26.6852 C   0  0
   96.8993   -2.8464   26.5253 C   0  0
   91.2284   -1.0093   22.1836 C   0  0
   91.5347   -5.3934   18.2667 N   0  0
   88.0667   -7.2122    9.8258 N   0  0
   95.5573   -3.1113   20.0751 N   0  0
   94.9850   -1.6997   25.5487 N   0  0
   92.5636   -7.1431   19.4238 O   0  0
   91.3505   -9.0017   17.8413 O   0  0
   88.8692   -6.4241   12.5472 O   0  0
   87.4235   -5.3995    7.9974 O   0  0
   94.3521   -5.2487   18.4763 O   0  0
   97.8079   -1.9764   20.8330 O   0  0
   95.8134   -0.5698   20.8115 O   0  0
   94.8624    1.1767   25.0900 O   0  0
   97.3113   -3.6181   27.6109 O   0  0
   96.3313   -1.9495   21.1052 S   0  0
  1  2  1  0
  1  3  1  0
  1  4  1  0
  1 36  1  0
  5  6  1  0
  6 39  1  0
  7  8  1  0
  7 45  1  0
  8 37  1  0
  9  4  1  0
 10 11  1  0
 11 12  1  0
 13 14  1  0
 15 16  1  0
 15 43  1  0
 17 18  1  0
 17 12  1  0
 19 20  1  0
 21 16  1  0
 22 43  1  0
 22 23  1  0
 23 38  1  0
 24 38  1  0
 24 25  1  0
 25 44  1  0
 26 44  1  0
 26 27  1  0
 27 38  1  0
 28 45  1  0
 29 30  1  0
 30 31  1  0
 31 40  1  0
 32 40  1  0
 32 33  1  0
 33 48  1  0
 34 40  1  0
 34 35  1  0
 35 49  1  0
 37 10  1  0
 50 39  1  0
 50 29  1  0
  4  5  2  0
  6  7  2  0
  8  9  2  0
 10 41  2  0
 11 42  2  0
 12 13  2  0
 14 15  2  0
 16 17  2  0
 18 19  2  0
 20 21  2  0
 50 46  2  0
 50 47  2  0
M  END
> <Name>
CHEMBL3785336 PubChem-127031927

> <rmsd>
0.626106977

$$$$
CHEMBL261902 PubChem-44413877
  SciTegic06052412183D

 93104  0  0  0  0            999 V2000
   84.9993   -8.6708    8.2889 N   0  0
   86.9810   -9.7046    7.4722 N   0  0
   85.0688   -6.6937    9.6887 N   0  0
   88.0346   -6.9631    9.3901 N   0  0
   89.0181   -8.6041    8.1808 N   0  0
   92.2173   -6.2585   13.7146 N   0  0
   91.3975   -8.1292   15.0185 N   0  0
   90.3372   -7.4907   17.0532 N   0  0
   91.5229   -4.6232   15.1183 N   0  0
   90.1163   -5.1660   17.7049 N   0  0
   93.3341   -3.1591   18.6402 N   0  0
   93.0317   -4.4665   20.6713 N   0  0
   90.9584   -4.0755   21.7683 N   0  0
   91.3417   -2.0754   18.7356 N   0  0
   89.3265   -2.5020   20.9024 N   0  0
   98.9490   -2.9611   26.1024 N   0  0
   96.8472   -3.6086   27.1355 N   0  0
   95.8343   -1.8840   28.4240 N   0  0
   98.9798   -0.8343   26.8879 N   0  0
   96.8332    0.3106   28.6296 N   0  0
   85.6174   -9.6605    7.5643 C   0  0
   87.6895   -8.7460    8.1210 C   0  0
   87.1032   -7.7646    8.8386 C   0  0
   85.7221   -7.7103    8.9352 C   0  0
   89.2087   -7.5150    8.9668 C   0  0
   90.0567   -9.4670    7.6351 C   0  0
   90.1278  -10.7634    8.4207 C   0  0
   91.8270  -10.0720   12.2009 C   0  0
   92.6370   -8.9365   11.5990 C   0  0
   94.0486   -8.9307   12.1521 C   0  0
   94.0342   -7.7790   13.1208 C   0  0
   92.9028   -6.9172   12.6086 C   0  0
   91.5750   -6.8105   14.7534 C   0  0
   90.7605   -8.4656   16.1826 C   0  0
   90.5337   -6.1644   16.7832 C   0  0
   91.1673   -5.8334   15.5933 C   0  0
   92.1658   -4.9221   13.9524 C   0  0
   94.5495   -6.3096   15.9032 C   0  0
   95.2037   -5.3276   16.8630 C   0  0
   95.2857   -5.8141   18.2966 C   0  0
   95.4055   -4.5167   19.0355 C   0  0
   94.6558   -3.5422   18.1301 C   0  0
   92.6568   -3.5601   19.7313 C   0  0
   92.1687   -4.7191   21.7014 C   0  0
   90.5855   -3.1648   20.8205 C   0  0
   91.4703   -2.9114   19.7813 C   0  0
   92.5082   -2.2523   18.0526 C   0  0
   97.5775   -5.2046   22.4842 C   0  0
   98.6117   -5.3093   23.5905 C   0  0
   98.0357   -6.0315   24.7790 C   0  0
   98.7857   -5.4345   25.9421 C   0  0
   99.3642   -4.1501   25.3610 C   0  0
   97.8542   -2.7443   26.8490 C   0  0
   95.8303   -3.1664   27.9354 C   0  0
   96.8468   -1.0182   28.1247 C   0  0
   97.8794   -1.4786   27.3190 C   0  0
   99.6162   -1.7769   26.1370 C   0  0
   90.0982  -11.8338    7.3643 C   0  0
   90.3212  -11.0439    6.0877 C   0  0
   89.7004  -11.6952    4.8626 C   0  0
   91.3393  -10.7987    9.1197 O   0  0
   89.6797  -11.5256   11.0717 O   0  0
   92.2421  -11.3041   11.6834 O   0  0
   91.9976   -7.7126   11.8783 O   0  0
   95.2315   -7.0500   13.1052 O   0  0
   96.6486   -8.9564   14.2188 O   0  0
   95.2159   -7.5378   15.8903 O   0  0
   94.5244   -4.0992   16.8405 O   0  0
   96.7548   -4.1469   19.0583 O   0  0
   97.8096   -2.2613   20.5114 O   0  0
   98.1892   -4.7105   21.3311 O   0  0
   98.9921   -4.0248   24.0099 O   0  0
   99.8344   -6.2631   26.3607 O   0  0
   98.4444   -6.8017   28.5346 O   0  0
  101.0184   -7.2408   28.6529 O   0  0
   99.9899   -4.6919   28.6480 O   0  0
   98.2505   -7.4071   24.6678 O   0  0
   95.7100   -3.3846   21.5649 O   0  0
   94.0983   -6.4537   18.6705 O   0  0
   97.4629   -6.5165   14.6377 O   0  0
   94.9439   -8.7012   11.1026 O   0  0
   91.2763  -13.3600   10.1387 O   0  0
   88.8348  -12.4325    7.3772 O   0  0
   89.8052   -9.7548    6.2812 O   0  0
   90.4219  -11.3265    3.7213 O   0  0
   88.3122  -10.7832    2.2572 O   0  0
   90.3918  -11.7394    0.9914 O   0  0
   88.8262  -13.3261    2.6173 O   0  0
   91.0786  -11.7292   10.5216 P   0  0
   96.1355   -7.5554   14.4578 P   0  0
   97.1107   -3.5987   20.6295 P   0  0
   99.7777   -6.2628   28.0565 P   0  0
   89.4528  -11.7678    2.4021 P   0  0
  5 22  1  0
  6 33  1  0
 11 43  1  0
 16 53  1  0
 21  2  1  0
 22 23  1  0
 23  4  1  0
 24  3  1  0
 24  1  1  0
 25  5  1  0
 26  5  1  0
 26 27  1  0
 26 84  1  0
 27 61  1  0
 27 58  1  0
 28 63  1  0
 29 28  1  0
 29 30  1  0
 29 64  1  0
 30 31  1  0
 30 81  1  0
 31 32  1  0
 31 65  1  0
 32  6  1  0
 32 64  1  0
 34  7  1  0
 35  8  1  0
 35 10  1  0
 36  9  1  0
 36 33  1  0
 37  6  1  0
 38 67  1  0
 39 38  1  0
 39 40  1  0
 39 68  1  0
 40 41  1  0
 40 79  1  0
 41 42  1  0
 41 69  1  0
 42 11  1  0
 42 68  1  0
 44 12  1  0
 45 13  1  0
 45 15  1  0
 46 14  1  0
 46 43  1  0
 47 11  1  0
 48 71  1  0
 49 48  1  0
 49 50  1  0
 49 72  1  0
 50 51  1  0
 50 77  1  0
 51 52  1  0
 51 73  1  0
 52 16  1  0
 52 72  1  0
 54 17  1  0
 55 18  1  0
 55 20  1  0
 56 19  1  0
 56 53  1  0
 57 16  1  0
 58 83  1  0
 58 59  1  0
 59 84  1  0
 59 60  1  0
 60 85  1  0
 89 61  1  0
 89 63  1  0
 89 82  1  0
 90 65  1  0
 90 67  1  0
 90 80  1  0
 91 69  1  0
 91 71  1  0
 91 78  1  0
 92 73  1  0
 92 75  1  0
 92 76  1  0
 93 85  1  0
 93 87  1  0
 93 88  1  0
 21  1  2  0
 22  2  2  0
 23 24  2  0
 25  4  2  0
 33  7  2  0
 34  8  2  0
 35 36  2  0
 37  9  2  0
 43 12  2  0
 44 13  2  0
 45 46  2  0
 47 14  2  0
 53 17  2  0
 54 18  2  0
 55 56  2  0
 57 19  2  0
 89 62  2  0
 90 66  2  0
 91 70  2  0
 92 74  2  0
 93 86  2  0
M  END
> <Name>
CHEMBL261902 PubChem-44413877

> <rmsd>
0.585024238

$$$$
CHEMBL2059858 PubChem-70682195
  SciTegic06052412183D

 92103  0  0  0  0            999 V2000
  103.4151   -8.8244   23.4665 P   0  0
   96.8449   -3.8977   21.5191 P   0  0
   91.2578   -1.5705   16.6584 P   0  0
   86.8580   -3.1259    8.1780 P   0  0
  102.1318   -8.9394   22.6752 O   0  0
  104.6548   -9.6201   22.6325 O   0  0
  103.2061   -9.5353   24.9897 O   0  0
  102.8442   -6.4162   24.3676 O   0  0
  101.0329   -3.3200   22.2991 O   0  0
   98.0576   -5.0178   21.9244 O   0  0
   97.4562   -2.6197   20.9918 O   0  0
   96.4658   -4.6473   19.0234 O   0  0
   93.0245   -4.6124   18.6635 O   0  0
   92.8339   -2.1057   16.3208 O   0  0
   91.1635   -0.0806   16.4176 O   0  0
   90.3965   -2.2179   14.2433 O   0  0
   86.8284   -1.8623   12.3181 O   0  0
   88.1005   -2.5753    9.1974 O   0  0
   86.7112   -2.1560    7.0251 O   0  0
   85.3901   -3.2282    9.0359 O   0  0
   84.4309   -7.1223    9.4471 O   0  0
   83.5582   -8.1022    7.2283 O   0  0
   82.4563   -5.0488    8.2673 O   0  0
   87.2854   -4.6466    7.5706 O   0  0
   89.6008   -3.5225   11.8999 O   0  0
   90.8687   -1.8978   18.2746 O   0  0
   94.5120   -5.0593   16.0339 O   0  0
   95.9081   -3.5481   22.8847 O   0  0
  100.2409   -5.1902   24.5464 O   0  0
  103.8518   -7.0752   23.6664 C   0  0
  102.4134   -5.3980   23.5151 C   0  0
  100.9010   -5.4823   23.3452 C   0  0
  100.3550   -4.5457   22.2843 C   0  0
   98.9457   -4.3243   22.7509 C   0  0
   95.7848   -4.6300   20.2416 C   0  0
   95.6357   -5.3552   18.1506 C   0  0
   94.9199   -4.3971   17.2012 C   0  0
   93.7013   -3.7322   17.8164 C   0  0
   92.8350   -3.4684   16.6216 C   0  0
   90.0673   -2.4231   15.5839 C   0  0
   89.1754   -1.9123   13.6463 C   0  0
   89.2268   -2.1871   12.1475 C   0  0
   87.9132   -1.8635   11.4386 C   0  0
   87.7423   -2.9904   10.4808 C   0  0
   84.4546   -3.7403    8.1369 C   0  0
   83.7749   -4.9567    8.7441 C   0  0
   84.5217   -6.2207    8.3838 C   0  0
   83.7730   -6.7246    7.1773 C   0  0
   82.4472   -5.9893    7.2210 C   0  0
   83.0459   -4.6510    5.1546 C   0  0
   81.1280   -4.2157    4.3662 C   0  0
   80.0100   -3.7114    3.7161 C   0  0
   78.6504   -4.8217    5.3320 C   0  0
   80.9728   -5.0055    5.4501 C   0  0
   88.6895   -4.0618   10.9712 C   0  0
   87.2997   -5.1308   12.8032 C   0  0
   86.9567   -7.0644   11.9944 C   0  0
   86.5996   -8.3768   11.7172 C   0  0
   87.7658   -8.1769    9.6382 C   0  0
   87.7026   -6.3653   11.1109 C   0  0
   93.4966   -4.2444   15.4965 C   0  0
   92.1741   -4.9946   13.4915 C   0  0
   91.0249   -6.5911   14.2913 C   0  0
   90.1973   -7.6752   14.5498 C   0  0
   90.9467   -7.6305   16.8138 C   0  0
   91.7810   -6.0776   15.2839 C   0  0
   98.9218   -4.9207   24.1501 C   0  0
   97.4505   -4.3780   26.1172 C   0  0
   97.7186   -2.2779   26.3184 C   0  0
   97.7104   -0.9367   26.6751 C   0  0
   99.1827   -0.5191   24.8418 C   0  0
   98.4521   -2.6943   25.2642 C   0  0
   82.1715   -5.3101    5.9557 N   0  0
   82.4310   -3.9701    4.1448 N   0  0
   80.1357   -2.8591    2.5820 N   0  0
   78.7793   -4.0349    4.2139 N   0  0
   79.7558   -5.3131    5.9675 N   0  0
   87.9325   -5.1413   11.5972 N   0  0
   86.6868   -6.3154   13.0817 N   0  0
   85.8287   -9.1466   12.6369 N   0  0
   87.0173   -8.9135   10.5269 N   0  0
   88.1194   -6.8837    9.9279 N   0  0
   92.5146   -5.0687   14.8029 N   0  0
   91.2424   -5.9311   13.1402 N   0  0
   89.4316   -8.2860   13.5156 N   0  0
   90.1726   -8.1741   15.8210 N   0  0
   91.7702   -6.5718   16.5448 N   0  0
   98.2847   -4.0153   25.1025 N   0  0
   97.0752   -3.3176   26.8879 N   0  0
   96.9654   -0.4688   27.7907 N   0  0
   98.4524   -0.0728   25.9160 N   0  0
   99.1856   -1.8455   24.5031 N   0  0
  1  6  1  0
  1  7  1  0
  1 30  1  0
  2 10  1  0
  2 35  1  0
  2 28  1  0
  3 14  1  0
  3 40  1  0
  3 26  1  0
  4 18  1  0
  4 20  1  0
  4 24  1  0
 30  8  1  0
 31  8  1  0
 32 31  1  0
 32 33  1  0
 32 29  1  0
 33  9  1  0
 33 34  1  0
 34 10  1  0
 34 67  1  0
 35 12  1  0
 36 12  1  0
 37 36  1  0
 37 38  1  0
 37 27  1  0
 38 13  1  0
 38 39  1  0
 39 14  1  0
 39 61  1  0
 40 16  1  0
 41 16  1  0
 42 41  1  0
 42 43  1  0
 42 25  1  0
 43 17  1  0
 43 44  1  0
 44 18  1  0
 44 55  1  0
 45 20  1  0
 46 45  1  0
 46 47  1  0
 46 23  1  0
 47 21  1  0
 47 48  1  0
 48 22  1  0
 48 49  1  0
 49 23  1  0
 49 73  1  0
 51 74  1  0
 52 75  1  0
 52 76  1  0
 53 77  1  0
 54 73  1  0
 54 51  1  0
 55 25  1  0
 55 78  1  0
 57 79  1  0
 58 80  1  0
 58 81  1  0
 59 82  1  0
 60 78  1  0
 60 57  1  0
 61 27  1  0
 61 83  1  0
 63 84  1  0
 64 85  1  0
 64 86  1  0
 65 87  1  0
 66 83  1  0
 66 63  1  0
 67 29  1  0
 67 88  1  0
 69 89  1  0
 70 90  1  0
 70 91  1  0
 71 92  1  0
 72 88  1  0
 72 69  1  0
 73 50  1  0
 78 56  1  0
 83 62  1  0
 88 68  1  0
  1  5  2  0
  2 11  2  0
  3 15  2  0
  4 19  2  0
 50 74  2  0
 51 52  2  0
 53 76  2  0
 54 77  2  0
 56 79  2  0
 57 58  2  0
 59 81  2  0
 60 82  2  0
 62 84  2  0
 63 64  2  0
 65 86  2  0
 66 87  2  0
 68 89  2  0
 69 70  2  0
 71 91  2  0
 72 92  2  0
M  END
> <Name>
CHEMBL2059858 PubChem-70682195

> <rmsd>
0.445219636

$$$$
CHEMBL603929 PubChem-46874816
  SciTegic06052412183D

 46 51  0  0  0  0            999 V2000
   97.2037   -2.6022   20.3172 O   0  0
   89.4868   -5.6923   11.8783 O   0  0
   88.4266   -7.2188    9.7213 O   0  0
   89.2167   -2.9145    9.7789 O   0  0
   89.9473   -2.2727   12.1775 O   0  0
   97.3066   -5.8583   27.3311 O   0  0
   97.3266   -3.5426   27.4675 O   0  0
   94.8330   -4.9044   26.6592 O   0  0
   96.4799   -1.5026   29.2974 O   0  0
   97.5610   -3.6965   19.8023 C   0  0
   97.4644   -3.8759   18.3254 C   0  0
   96.3340   -4.7870   17.9731 C   0  0
   95.0419   -4.2727   17.8102 C   0  0
   93.9815   -5.1262   17.4907 C   0  0
   94.2099   -6.4974   17.3239 C   0  0
   91.9195   -7.0771   16.3404 C   0  0
   89.6119   -7.5594   15.9310 C   0  0
   90.6883   -5.9412   14.6471 C   0  0
   91.8538   -6.1395   15.3088 C   0  0
   92.1983   -4.7349   13.7534 C   0  0
   89.8919   -4.6082   12.6777 C   0  0
   89.1076   -5.1291   10.6489 C   0  0
   89.2879   -6.1375    9.5265 C   0  0
   89.9724   -3.9165   10.3950 C   0  0
   90.4476   -3.5189   11.7751 C   0  0
   95.4971   -7.0105   17.5213 C   0  0
   96.5582   -6.1593   17.8398 C   0  0
   98.2835   -4.7474   22.0277 C   0  0
   98.7439   -5.9106   22.6577 C   0  0
   99.0138   -5.9139   24.0302 C   0  0
   98.8303   -4.7495   24.7828 C   0  0
   99.1281   -4.7580   26.2467 C   0  0
   97.8617   -4.7613   27.0426 C   0  0
   94.8658   -4.0080   27.5428 C   0  0
   93.6389   -3.3736   28.1121 C   0  0
   94.1803   -2.2015   28.9437 C   0  0
   95.6633   -2.3187   28.8023 C   0  0
   98.3698   -3.5825   24.1601 C   0  0
   98.1003   -3.5815   22.7878 C   0  0
   93.1354   -7.4014   17.0258 N   0  0
   90.7804   -7.7806   16.6173 N   0  0
   89.5604   -6.6338   14.9269 N   0  0
   92.8322   -5.3933   14.7631 N   0  0
   90.8761   -5.0572   13.6626 N   0  0
   98.0400   -4.7790   20.6130 N   0  0
   96.0672   -3.4273   28.0281 N   0  0
 10 45  1  0
 11 10  1  0
 11 12  1  0
 13 14  1  0
 15 40  1  0
 15 26  1  0
 17 41  1  0
 18 42  1  0
 19 43  1  0
 19 16  1  0
 20 44  1  0
 21 44  1  0
 21  2  1  0
 22  2  1  0
 22 23  1  0
 22 24  1  0
 23  3  1  0
 24  4  1  0
 24 25  1  0
 25  5  1  0
 25 21  1  0
 27 12  1  0
 29 30  1  0
 31 38  1  0
 32 31  1  0
 32 33  1  0
 33  7  1  0
 35 34  1  0
 35 36  1  0
 36 37  1  0
 37 46  1  0
 39 28  1  0
 40 16  1  0
 44 18  1  0
 45 28  1  0
 46  7  1  0
 46 34  1  0
 10  1  2  0
 12 13  2  0
 14 15  2  0
 16 41  2  0
 17 42  2  0
 18 19  2  0
 20 43  2  0
 26 27  2  0
 28 29  2  0
 30 31  2  0
 33  6  2  0
 34  8  2  0
 37  9  2  0
 38 39  2  0
M  END
> <Name>
CHEMBL603929 PubChem-46874816

> <rmsd>
0.642181218

$$$$
CHEMBL441012 PubChem-136043814
  SciTegic06052412183D

111122  0  0  0  0            999 V2000
   89.6186   -6.4120   11.4858 C   0  0
   90.0733   -6.5990   12.7938 C   0  0
   91.3006   -5.8896   13.2070 C   0  0
   93.2452   -4.3721   13.4902 C   0  0
   93.2159   -5.4952   14.3222 C   0  0
   94.1936   -5.7038   15.3977 C   0  0
   94.4763   -6.7689   17.6920 C   0  0
   95.9678   -6.9557   17.8297 C   0  0
   97.7376   -7.9104   19.3668 C   0  0
   98.4225   -9.0262   19.6649 C   0  0
   97.9679  -10.3538   19.1270 C   0  0
  100.3378  -10.0951   20.8156 C   0  0
   98.1652   -6.5861   19.8661 C   0  0
   99.3009   -4.4530   20.4260 C   0  0
   97.9116   -4.4609   20.5801 C   0  0
   97.1608   -3.2727   21.0527 C   0  0
   94.8425   -4.3680   20.8828 C   0  0
   94.1639   -3.9860   19.5895 C   0  0
   93.5647   -3.0454   17.3813 C   0  0
   92.5752   -3.8132   17.9984 C   0  0
   91.2387   -3.9564   17.3872 C   0  0
   90.4703   -6.1979   18.3147 C   0  0
   90.2342   -7.1094   17.1440 C   0  0
   89.8836   -9.0078   15.5802 C   0  0
   89.7358   -7.7301   15.0366 C   0  0
   89.3790   -7.5180   13.6189 C   0  0
   87.8444   -8.0120   11.8484 C   0  0
   88.5040   -7.1014   11.0066 C   0  0
   86.6446   -8.7480   11.4053 C   0  0
   84.8644   -9.2688   10.1276 C   0  0
   84.6723  -10.2327   11.1212 C   0  0
   83.9586   -9.1071    8.9812 C   0  0
   83.3989   -7.8128    6.8301 C   0  0
   82.0670   -7.2543    7.2354 C   0  0
   79.5508   -7.2471    7.0357 C   0  0
   78.4381   -8.1232    6.4719 C   0  0
   77.7107   -7.3565    4.5260 C   0  0
   77.0247   -7.9721    3.3200 C   0  0
   75.1738   -6.9742    2.6095 C   0  0
   74.5408   -6.1715    1.4837 C   0  0
   73.8419   -4.0728    1.5266 C   0  0
   74.1729   -2.6477    1.1321 C   0  0
   75.2072   -0.7658    1.6488 C   0  0
   83.2960   -9.0314    5.9243 C   0  0
   89.4854   -6.5556   19.4179 C   0  0
   88.8444   -4.8824   21.1166 C   0  0
   89.2453   -4.0226   22.2408 C   0  0
   90.5243   -3.9714   22.8008 C   0  0
   90.4155   -3.1673   23.9366 C   0  0
   89.1048   -2.7421   23.9844 C   0  0
   88.6264   -1.9321   25.0135 C   0  0
   89.5215   -1.5540   26.0266 C   0  0
   90.8620   -1.9914   25.9932 C   0  0
   91.3237   -2.8189   24.9505 C   0  0
   92.7452   -3.2721   24.9643 C   0  0
   93.7113   -5.4787   24.4481 C   0  0
   94.6104   -4.8781   23.3951 C   0  0
   93.8950   -4.7934   22.0244 C   0  0
   91.7102   -4.7577   22.3335 C   0  0
   96.6062   -5.0740   24.3660 C   0  0
   97.3875   -6.2061   25.0580 C   0  0
   98.0806   -5.6718   26.3252 C   0  0
   98.2859   -4.1274   26.2649 C   0  0
   98.5340   -3.7838   24.7676 C   0  0
   99.1915   -2.4358   24.5277 C   0  0
   97.3935   -3.3307   28.3025 C   0  0
   97.0211   -2.0346   26.4415 C   0  0
   99.4389   -6.3403   26.4325 C   0  0
   93.6186   -7.7094   18.5503 C   0  0
   93.7787   -9.1681   18.1600 C   0  0
   91.8765   -4.4726   12.5162 S   0  0
   99.7341   -5.9906   19.8796 S   0  0
   94.8943   -3.0533   18.4014 S   0  0
   90.2865   -8.7866   17.2002 S   0  0
   85.9253  -10.0203   12.2293 S   0  0
   92.1467   -6.3204   14.1675 N   0  0
   94.0264   -6.7969   16.3040 N   0  0
   96.5111   -8.0137   18.6264 N   0  0
   97.2964   -5.6369   20.2671 N   0  0
   95.7461   -3.2998   21.3088 N   0  0
   90.2349   -4.8123   17.9269 N   0  0
   88.3046   -8.1934   13.1184 N   0  0
   85.9459   -8.4554   10.2882 N   0  0
   84.2358   -8.0988    7.9959 N   0  0
   80.8497   -7.8534    6.7774 N   0  0
   89.9148   -6.6917   15.9008 N   0  0
   88.4050   -3.2394   22.9533 N   0  0
   97.1321   -3.4206   26.8771 N   0  0
   92.9046   -4.3264   19.2238 N   0  0
   95.1299   -4.8744   15.5574 O   0  0
   96.7483   -6.1295   17.2861 O   0  0
   99.5617   -8.9522   20.4788 O   0  0
   97.7931   -2.2022   21.2730 O   0  0
   90.9451   -3.2454   16.3904 O   0  0
   88.0855   -6.8740    9.7001 O   0  0
   82.9431   -9.8449    8.8699 O   0  0
   82.0201   -6.2277    7.9731 O   0  0
   78.5875   -8.2825    5.0896 O   0  0
   76.5668   -6.9599    2.4760 O   0  0
   74.9994   -4.8511    1.5202 O   0  0
   74.9914   -2.0670    2.1045 O   0  0
   89.7663   -5.7720   20.5686 O   0  0
   87.6654   -4.8350   20.6663 O   0  0
   87.0544   -3.0921   22.7497 O   0  0
   92.8136   -4.6786   25.1600 O   0  0
   93.7258   -6.7224   24.6534 O   0  0
   92.8025   -3.9174   22.1097 O   0  0
   95.8290   -5.5739   23.3108 O   0  0
   97.4128   -3.9891   23.9228 O   0  0
   97.3267   -6.0442   27.4367 O   0  0
   93.9028   -7.5318   19.9056 O   0  0
  2  3  1  0
  3 71  1  0
  4 71  1  0
  5 76  1  0
  5  6  1  0
  6 77  1  0
  7 77  1  0
  7  8  1  0
  7 69  1  0
  8 78  1  0
  9 13  1  0
 10 92  1  0
 11 10  1  0
 12 92  1  0
 13 72  1  0
 14 72  1  0
 15 79  1  0
 15 16  1  0
 16 80  1  0
 17 80  1  0
 17 18  1  0
 18 73  1  0
 19 73  1  0
 20 21  1  0
 20 89  1  0
 21 81  1  0
 22 81  1  0
 22 23  1  0
 22 45  1  0
 23 74  1  0
 24 74  1  0
 25 26  1  0
 25 86  1  0
 26  2  1  0
 27 82  1  0
 27 29  1  0
 28 95  1  0
 28  1  1  0
 29 75  1  0
 30 83  1  0
 30 32  1  0
 31 75  1  0
 32 84  1  0
 33 84  1  0
 33 34  1  0
 33 44  1  0
 34 85  1  0
 35 85  1  0
 35 36  1  0
 36 98  1  0
 37 98  1  0
 37 38  1  0
 38 99  1  0
 39 99  1  0
 39 40  1  0
 40100  1  0
 41100  1  0
 41 42  1  0
 42101  1  0
 43101  1  0
 45102  1  0
 46102  1  0
 46 47  1  0
 48 49  1  0
 50 87  1  0
 50 51  1  0
 52 53  1  0
 54 49  1  0
 55 54  1  0
 55105  1  0
 56105  1  0
 57 56  1  0
 57 58  1  0
 57108  1  0
 58107  1  0
 58 17  1  0
 59107  1  0
 59 48  1  0
 60108  1  0
 60 61  1  0
 60109  1  0
 61 62  1  0
 62 63  1  0
 62110  1  0
 62 68  1  0
 63 64  1  0
 63 88  1  0
 64109  1  0
 64 65  1  0
 66 88  1  0
 67 88  1  0
 69 70  1  0
 69111  1  0
 78  9  1  0
 87104  1  0
 87 47  1  0
  1  2  2  0
  3 76  2  0
  4  5  2  0
  6 90  2  0
  8 91  2  0
  9 10  2  0
 13 79  2  0
 14 15  2  0
 16 93  2  0
 18 89  2  0
 19 20  2  0
 21 94  2  0
 23 86  2  0
 24 25  2  0
 26 82  2  0
 27 28  2  0
 29 83  2  0
 30 31  2  0
 32 96  2  0
 34 97  2  0
 46103  2  0
 47 48  2  0
 49 50  2  0
 51 52  2  0
 53 54  2  0
 56106  2  0
M  END
> <Name>
CHEMBL441012 PubChem-136043814

> <rmsd>
0.490689814

$$$$
CHEMBL2058182 PubChem-11557243
  SciTegic06052412183D

 90101  0  0  0  0            999 V2000
   96.8121   -0.6819   24.8729 C   0  0
   97.7731   -0.8123   26.0404 C   0  0
   97.2584   -1.8035   27.0488 C   0  0
   97.8783   -1.3232   28.3358 C   0  0
   98.3186    0.0933   28.0002 C   0  0
   96.4642    1.3309   29.2001 C   0  0
   97.5703    2.4881   30.5947 C   0  0
   98.0413    3.3113   31.6094 C   0  0
  100.2550    2.6321   31.0394 C   0  0
   98.4409    1.7776   29.8490 C   0  0
   94.4199   -1.5762   22.6006 C   0  0
   94.0726   -2.7251   21.6980 C   0  0
   92.5651   -2.6867   21.6150 C   0  0
   92.0936   -3.0973   20.2282 C   0  0
   90.1153   -4.6831   17.9474 C   0  0
   89.8750   -3.3392   17.3059 C   0  0
   88.4927   -3.4904   16.7223 C   0  0
   88.2920   -2.6114   15.4881 C   0  0
   87.9374   -5.2943   13.6180 C   0  0
   86.6084   -7.0262   13.3314 C   0  0
   85.2632   -7.0955   13.9864 C   0  0
   84.3555   -7.6933   12.9251 C   0  0
   83.2339   -6.7119   12.6315 C   0  0
   86.4372   -7.9701   12.1555 C   0  0
   87.2015   -6.6720   10.1173 C   0  0
   89.0848   -7.5744    9.7327 C   0  0
   90.3388   -7.9638    9.2839 C   0  0
   90.3810   -9.5860   11.0333 C   0  0
   88.5241   -8.1988   10.7899 C   0  0
   89.1774   -5.5993   17.1840 C   0  0
   89.8041   -7.8743   16.3136 C   0  0
   91.1926   -7.4071   14.7749 C   0  0
   92.1209   -7.3846   13.7424 C   0  0
   92.1667   -5.0057   13.9325 C   0  0
   90.7933   -6.2510   15.3479 C   0  0
   93.1150   -0.8138   22.7356 C   0  0
   91.6684   -1.5469   24.6857 C   0  0
   92.4054   -0.3096   26.2468 C   0  0
   92.6656    0.3965   27.4146 C   0  0
   94.3362    1.6153   26.2244 C   0  0
   93.1059   -0.0379   25.1252 C   0  0
   97.6477   -3.1032   26.7244 O   0  0
   99.0055   -2.0768   28.6754 O   0  0
   97.8917    0.4188   26.6995 O   0  0
   96.8656   -1.8380   24.0872 O   0  0
   97.3153   -2.4540   21.5889 O   0  0
   98.0247   -0.0514   22.3053 O   0  0
   95.3666   -0.7474   21.9863 O   0  0
   92.4446   -4.4247   19.9479 O   0  0
   91.2866   -6.7543   19.6977 O   0  0
   90.6277   -5.3732   21.8088 O   0  0
   89.7343   -4.6723   19.2975 O   0  0
   89.2307   -2.8933   14.4853 O   0  0
   89.2039   -3.5723   11.9614 O   0  0
   86.9391   -2.6885   12.9152 O   0  0
   86.8318   -5.7188   12.8895 O   0  0
   82.2888   -7.3008   11.7883 O   0  0
   81.5208   -4.8973   11.0295 O   0  0
   83.5639   -5.9253    9.7416 O   0  0
   80.9989   -6.8716    9.3942 O   0  0
   85.0958   -7.9304   11.7488 O   0  0
   85.3220   -7.9539   15.0831 O   0  0
   88.2748   -4.8417   16.4130 O   0  0
   89.8912   -2.2988   18.2420 O   0  0
   92.1395   -1.3768   21.8898 O   0  0
   94.4814   -3.9250   22.2816 O   0  0
   97.7697    1.0409   28.9615 N   0  0
   96.3050    2.2306   30.2136 N   0  0
   97.1525    4.0673   32.4265 N   0  0
   99.3917    3.3642   31.8148 N   0  0
   99.7811    1.8225   30.0441 N   0  0
   87.3366   -7.6503   11.0512 N   0  0
   88.2713   -6.6044    9.2748 N   0  0
   90.9678   -7.3200    8.1801 N   0  0
   90.9684   -8.9727    9.9552 N   0  0
   89.1426   -9.1957   11.4653 N   0  0
   89.9193   -6.5204   16.3281 N   0  0
   90.5882   -8.4567   15.3618 N   0  0
   92.5860   -8.5821   13.1269 N   0  0
   92.5922   -6.1685   13.3378 N   0  0
   91.2568   -5.0409   14.9531 N   0  0
   92.6622   -0.8078   24.1250 N   0  0
   91.4844   -1.2639   26.0056 N   0  0
   91.9361    0.1456   28.6113 N   0  0
   93.6373    1.3573   27.3771 N   0  0
   94.0649    0.9192   25.0780 N   0  0
   96.8968   -1.3037   22.4775 P   0  0
   91.0320   -5.3405   20.1660 P   0  0
   88.3504   -3.5787   13.2073 P   0  0
   82.0805   -6.2057   10.5104 P   0  0
  1 45  1  0
  2  1  1  0
  2  3  1  0
  2 44  1  0
  3 42  1  0
  3  4  1  0
  4 43  1  0
  4  5  1  0
  5 44  1  0
  5 67  1  0
  7 68  1  0
  8 69  1  0
  8 70  1  0
  9 71  1  0
 10 67  1  0
 10  7  1  0
 11 48  1  0
 11 12  1  0
 12 13  1  0
 12 66  1  0
 13 14  1  0
 13 65  1  0
 14 49  1  0
 15 52  1  0
 15 16  1  0
 16 17  1  0
 16 64  1  0
 17 18  1  0
 17 63  1  0
 18 53  1  0
 19 56  1  0
 20 56  1  0
 20 21  1  0
 21 22  1  0
 21 62  1  0
 22 23  1  0
 22 61  1  0
 23 57  1  0
 24 61  1  0
 24 72  1  0
 24 20  1  0
 26 73  1  0
 27 74  1  0
 27 75  1  0
 28 76  1  0
 29 72  1  0
 29 26  1  0
 30 63  1  0
 30 77  1  0
 30 15  1  0
 32 78  1  0
 33 79  1  0
 33 80  1  0
 34 81  1  0
 35 77  1  0
 35 32  1  0
 36 65  1  0
 36 82  1  0
 36 11  1  0
 38 83  1  0
 39 84  1  0
 39 85  1  0
 40 86  1  0
 41 82  1  0
 41 38  1  0
 67  6  1  0
 72 25  1  0
 77 31  1  0
 82 37  1  0
 87 45  1  0
 87 47  1  0
 87 48  1  0
 88 49  1  0
 88 51  1  0
 88 52  1  0
 89 53  1  0
 89 55  1  0
 89 19  1  0
 90 57  1  0
 90 59  1  0
 90 60  1  0
  6 68  2  0
  7  8  2  0
  9 70  2  0
 10 71  2  0
 25 73  2  0
 26 27  2  0
 28 75  2  0
 29 76  2  0
 31 78  2  0
 32 33  2  0
 34 80  2  0
 35 81  2  0
 37 83  2  0
 38 39  2  0
 40 85  2  0
 41 86  2  0
 87 46  2  0
 88 50  2  0
 89 54  2  0
 90 58  2  0
M  END
> <Name>
CHEMBL2058182 PubChem-11557243

> <rmsd>
0.655140936

$$$$
CHEMBL267824 PubChem-44413875
  SciTegic06052412183D

 93104  0  0  0  0            999 V2000
  103.6101   -8.3771   28.4106 N   0  0
  102.7148   -7.4022   26.4319 N   0  0
  103.8960   -7.0959   30.4487 N   0  0
  102.7766   -4.8461   28.8291 N   0  0
  102.1416   -5.0640   26.6608 N   0  0
   97.7714   -3.9458   20.2594 N   0  0
   98.8398   -5.2696   21.9810 N   0  0
  100.0731   -7.1240   21.1422 N   0  0
   98.4912   -5.1650   18.4951 N   0  0
  100.2172   -7.5916   18.7690 N   0  0
   91.0203   -7.2395   15.9643 N   0  0
   92.5126   -5.8369   14.6729 N   0  0
   91.5261   -4.9437   12.6994 N   0  0
   89.2403   -7.0845   14.5765 N   0  0
   89.2303   -5.4216   12.0897 N   0  0
   88.0086   -9.2004   11.1805 N   0  0
   85.6058   -9.0834   11.4298 N   0  0
   84.6119   -7.2498   10.2836 N   0  0
   88.2381   -7.3734    9.8649 N   0  0
   85.9350   -5.6746    8.9965 N   0  0
  103.2409   -8.4800   27.0923 C   0  0
  102.5657   -6.2450   27.1239 C   0  0
  102.9370   -6.1168   28.4151 C   0  0
  103.4689   -7.2039   29.0952 C   0  0
  102.2998   -4.2199   27.7174 C   0  0
  101.8262   -4.7415   25.2649 C   0  0
  100.9120   -3.5325   25.0911 C   0  0
   97.9098   -2.2422   24.2626 C   0  0
   97.1734   -1.8433   22.9899 C   0  0
   95.8016   -2.4979   22.9432 C   0  0
   95.9881   -3.5431   21.8839 C   0  0
   97.0555   -2.9271   21.0183 C   0  0
   98.5285   -4.9559   20.6999 C   0  0
   99.6241   -6.3693   22.1971 C   0  0
   99.7508   -6.8009   19.8551 C   0  0
   98.9555   -5.6848   19.6470 C   0  0
   97.7624   -4.0916   18.9108 C   0  0
   94.2891   -5.7509   18.9930 C   0  0
   93.7153   -6.4918   17.7905 C   0  0
   94.0461   -7.9772   17.7510 C   0  0
   92.8942   -8.5470   16.9900 C   0  0
   91.7920   -7.5021   17.1779 C   0  0
   91.3438   -6.4835   14.9069 C   0  0
   92.6026   -5.0676   13.5461 C   0  0
   90.3529   -5.5967   12.9473 C   0  0
   90.2820   -6.3925   14.0812 C   0  0
   89.7281   -7.5893   15.7461 C   0  0
   91.4563   -9.7194   13.3624 C   0  0
   90.3159  -10.6702   13.0374 C   0  0
   90.4829  -11.2435   11.6515 C   0  0
   89.0663  -11.4030   11.1757 C   0  0
   88.3180  -10.3691   11.9961 C   0  0
   86.8062   -8.6613   10.9596 C   0  0
   84.4988   -8.3605   11.0824 C   0  0
   85.8251   -6.8373    9.8099 C   0  0
   86.9438   -7.5713   10.1731 C   0  0
   88.8731   -8.3947   10.5071 C   0  0
  101.8816   -2.4202   24.8662 C   0  0
  103.0826   -3.1267   24.2752 C   0  0
  104.3864   -2.5350   24.7944 C   0  0
  100.1059   -3.2753   26.2083 O   0  0
   98.7096   -5.4862   26.0307 O   0  0
   98.1084   -3.6261   24.2929 O   0  0
   97.9308   -2.2156   21.8540 O   0  0
   94.8212   -3.7800   21.1498 O   0  0
   93.6012   -5.5093   22.6942 O   0  0
   93.5057   -5.9878   20.1309 O   0  0
   92.3264   -6.3031   17.6923 O   0  0
   93.2527   -8.6996   15.6462 O   0  0
   94.1086  -11.1702   15.6111 O   0  0
   92.6325  -10.4378   13.5905 O   0  0
   89.0913   -9.9824   13.1079 O   0  0
   88.5734  -12.6807   11.4800 O   0  0
   88.3050  -12.9155    8.8585 O   0  0
   87.1625  -14.7528   10.3210 O   0  0
   86.1661  -12.1873   10.1923 O   0  0
   91.1561  -12.4657   11.7030 O   0  0
   91.5600  -10.8767   16.1053 O   0  0
   94.0574   -8.5327   19.0326 O   0  0
   95.8102   -6.3674   21.5992 O   0  0
   94.8573   -1.5457   22.5434 O   0  0
   97.4517   -3.4043   26.9798 O   0  0
  101.3587   -1.5128   23.9463 O   0  0
  103.0202   -4.5117   24.5518 O   0  0
  104.5301   -2.8029   26.1577 O   0  0
  107.1449   -2.5361   26.0540 O   0  0
  106.0023   -2.0107   28.3474 O   0  0
  105.7624   -0.3108   26.1873 O   0  0
   98.5994   -3.9861   25.8768 P   0  0
   94.4221   -5.4085   21.4300 P   0  0
   92.9156  -10.3158   15.2572 P   0  0
   87.5804  -13.1209   10.1738 P   0  0
  105.8950   -1.9311   26.6603 P   0  0
  5 22  1  0
  6 33  1  0
 11 43  1  0
 16 53  1  0
 21  2  1  0
 22 23  1  0
 23  4  1  0
 24  3  1  0
 24  1  1  0
 25  5  1  0
 26  5  1  0
 26 27  1  0
 26 84  1  0
 27 61  1  0
 27 58  1  0
 28 63  1  0
 29 28  1  0
 29 30  1  0
 29 64  1  0
 30 31  1  0
 30 81  1  0
 31 32  1  0
 31 65  1  0
 32  6  1  0
 32 64  1  0
 34  7  1  0
 35  8  1  0
 35 10  1  0
 36  9  1  0
 36 33  1  0
 37  6  1  0
 38 67  1  0
 39 38  1  0
 39 40  1  0
 39 68  1  0
 40 41  1  0
 40 79  1  0
 41 42  1  0
 41 69  1  0
 42 11  1  0
 42 68  1  0
 44 12  1  0
 45 13  1  0
 45 15  1  0
 46 14  1  0
 46 43  1  0
 47 11  1  0
 48 71  1  0
 49 48  1  0
 49 50  1  0
 49 72  1  0
 50 51  1  0
 50 77  1  0
 51 52  1  0
 51 73  1  0
 52 16  1  0
 52 72  1  0
 54 17  1  0
 55 18  1  0
 55 20  1  0
 56 19  1  0
 56 53  1  0
 57 16  1  0
 58 83  1  0
 58 59  1  0
 59 84  1  0
 59 60  1  0
 60 85  1  0
 89 61  1  0
 89 63  1  0
 89 82  1  0
 90 65  1  0
 90 67  1  0
 90 80  1  0
 91 69  1  0
 91 71  1  0
 91 78  1  0
 92 73  1  0
 92 75  1  0
 92 76  1  0
 93 85  1  0
 93 87  1  0
 93 88  1  0
 21  1  2  0
 22  2  2  0
 23 24  2  0
 25  4  2  0
 33  7  2  0
 34  8  2  0
 35 36  2  0
 37  9  2  0
 43 12  2  0
 44 13  2  0
 45 46  2  0
 47 14  2  0
 53 17  2  0
 54 18  2  0
 55 56  2  0
 57 19  2  0
 89 62  2  0
 90 66  2  0
 91 70  2  0
 92 74  2  0
 93 86  2  0
M  END
> <Name>
CHEMBL267824 PubChem-44413875

> <rmsd>
0.642130852

$$$$
CHEMBL3582374 PubChem-137090999
  SciTegic06052412183D

 51 54  0  0  0  0            999 V2000
   97.7098   -3.6234   16.3124 C   0  0
   97.0772   -2.3822   16.9433 C   0  0
   97.2136   -2.2580   18.3829 C   0  0
   98.1793   -3.4288   20.4109 C   0  0
   98.9974   -4.5351   20.9817 C   0  0
   98.1602   -4.4316   24.5364 C   0  0
   99.5357   -4.0736   25.0766 C   0  0
   97.8891   -5.9051   24.7929 C   0  0
   97.1209   -3.6109   25.2425 C   0  0
   99.9228   -5.3296   20.1370 C   0  0
  100.1764   -5.0511   18.7875 C   0  0
  101.4291   -6.9416   19.7339 C   0  0
   95.7269   -2.4073   18.4859 C   0  0
   94.5799   -2.6522   16.0665 C   0  0
   91.3079   -5.5842   14.5931 C   0  0
   90.8560   -6.5593   15.6072 C   0  0
   89.6256   -7.2177   15.4906 C   0  0
   89.2183   -8.1096   16.4834 C   0  0
   90.0417   -8.3350   17.5916 C   0  0
   91.2606   -7.6601   17.6817 C   0  0
   89.4757   -5.8705   12.8411 C   0  0
   89.8084   -7.1737   12.1270 C   0  0
   90.5967   -6.9262   10.8485 C   0  0
   90.4870   -6.2125    8.0417 C   0  0
   91.4431   -4.3203   12.8983 C   0  0
   97.8798   -3.3951   19.0127 N   0  0
   98.9488   -4.8176   22.2517 N   0  0
  102.3190   -8.0134   20.0214 N   0  0
  100.6303   -6.3763   20.6570 N   0  0
   95.6390   -2.5302   17.0141 N   0  0
   94.8856   -2.8766   14.6893 N   0  0
   92.4867   -4.0404   13.6918 N   0  0
   92.4165   -4.8232   14.7571 N   0  0
   91.6368   -6.7962   16.7002 N   0  0
   90.6744   -5.2858   13.4291 N   0  0
   97.7476   -2.5082   21.1566 O   0  0
   98.1163   -4.1626   23.1376 O   0  0
   96.2530   -2.9700   24.5883 O   0  0
   97.1055   -3.5512   26.6290 O   0  0
   94.8963   -2.4167   19.4313 O   0  0
   93.3843   -2.5498   16.4482 O   0  0
   93.0444   -1.4622   13.4264 O   0  0
   94.3661   -3.0605   12.1175 O   0  0
   88.1120   -8.7028   16.3758 O   0  0
   89.6611   -9.2190   18.5975 O   0  0
   88.9444   -5.0252    9.8798 O   0  0
   88.4247   -7.3571    9.3091 O   0  0
   91.2091   -3.7432   11.8018 O   0  0
  101.3154   -6.1736   18.2516 S   0  0
   93.6894   -2.8206   13.4372 S   0  0
   89.5307   -6.3642    9.5300 S   0  0
  2  1  1  0
  2  3  1  0
  2 30  1  0
  3 26  1  0
  3 13  1  0
  4  5  1  0
  5 10  1  0
  6 37  1  0
  6  7  1  0
  6  8  1  0
  6  9  1  0
  9 39  1  0
 10 29  1  0
 11 49  1  0
 12 49  1  0
 12 28  1  0
 13 30  1  0
 14 31  1  0
 15 16  1  0
 15 35  1  0
 17 18  1  0
 18 19  1  0
 19 45  1  0
 20 34  1  0
 21 35  1  0
 21 22  1  0
 22 23  1  0
 23 51  1  0
 25 32  1  0
 26  4  1  0
 27 37  1  0
 30 14  1  0
 32 33  1  0
 34 16  1  0
 35 25  1  0
 50 31  1  0
 50 32  1  0
 51 24  1  0
  4 36  2  0
  5 27  2  0
  9 38  2  0
 10 11  2  0
 12 29  2  0
 13 40  2  0
 14 41  2  0
 15 33  2  0
 16 17  2  0
 18 44  2  0
 19 20  2  0
 25 48  2  0
 50 42  2  0
 50 43  2  0
 51 46  2  0
 51 47  2  0
M  END
> <Name>
CHEMBL3582374 PubChem-137090999

> <rmsd>
0.606804609

$$$$
3E7C
  DSViewer          3D                             0

 37 39  0  0  0  0  0  0  0  0999 V2000
   99.1590   -2.9260   25.2610 C   0  0
   98.9190   -3.6060   23.9390 C   0  0
   97.5130   -3.6370   23.6740 N   0  0
   96.9360   -2.3810   23.2840 C   0  0
   96.5280   -2.3300   21.8350 C   0  0  1  0  0  0
   97.6800   -2.2390   21.0260 O   0  0
   95.7530   -3.5570   21.4340 C   0  0
   95.4160   -3.5040   20.0420 N   0  0
   94.3030   -4.1590   19.6110 C   0  0
   93.4680   -4.6840   20.3240 O   0  0
   94.1910   -4.1750   18.1980 C   0  0
   95.0680   -3.7000   17.2000 C   0  0
   94.5780   -3.8950   15.9740 N   0  0
   93.4010   -4.4970   16.1880 N   0  0
   93.1260   -4.6780   17.5060 C   0  0
   91.9840   -5.2530   17.9000 N   0  0
   92.5900   -4.9150   15.1490 C   0  0
   92.9390   -6.0190   14.4170 C   0  0
   92.1230   -6.4200   13.3900 C   0  0
   90.9780   -5.7170   13.1150 C   0  0
   90.1800   -6.1030   12.1160 F   0  0
   90.6370   -4.6150   13.8530 C   0  0
   91.4480   -4.2080   14.8820 C   0  0
   95.7100   -1.0930   21.6070 C   0  0
   95.6650   -0.7650   20.3060 F   0  0
   94.4430   -1.2560   22.0160 F   0  0
   96.2190   -0.0570   22.2990 F   0  0
   96.7420   -4.4770   24.4330 C   0  0
   95.5420   -4.3810   24.6130 O   0  0
   97.4480   -5.5810   25.0740 C   0  0
   97.8860   -6.6440   24.3290 C   0  0
   97.6410   -6.7080   22.6400 Cl  0  0
   98.5380   -7.6830   24.9380 C   0  0
   98.7500   -7.6610   26.2920 C   0  0
   98.3060   -6.5980   27.0380 C   0  0
   97.6540   -5.5610   26.4270 C   0  0
   97.1220   -4.2580   27.3930 Cl  0  0
  1  2  1  0  0  0
  2  3  1  0  0  0
  3  4  1  0  0  0
  3 28  1  0  0  0
  4  5  1  0  0  0
  5  6  1  0  0  0
  5  7  1  0  0  0
  5 24  1  0  0  0
  7  8  1  0  0  0
  8  9  1  0  0  0
  9 10  2  0  0  0
  9 11  1  0  0  0
 11 12  1  0  0  0
 11 15  2  0  0  0
 12 13  2  0  0  0
 13 14  1  0  0  0
 14 15  1  0  0  0
 14 17  1  0  0  0
 15 16  1  0  0  0
 17 18  4  0  0  0
 17 23  4  0  0  0
 18 19  4  0  0  0
 19 20  4  0  0  0
 20 21  1  0  0  0
 20 22  4  0  0  0
 22 23  4  0  0  0
 24 25  1  0  0  0
 24 26  1  0  0  0
 24 27  1  0  0  0
 28 29  2  0  0  0
 28 30  1  0  0  0
 30 31  4  0  0  0
 30 36  4  0  0  0
 31 32  1  0  0  0
 31 33  4  0  0  0
 33 34  4  0  0  0
 34 35  4  0  0  0
 35 36  4  0  0  0
 36 37  1  0  0  0
M  END
> <Resolution>
2.15

$$$$
4P6W
  DSViewer          3D                             0

 35 39  0  0  0  0  0  0  0  0999 V2000
   27.7810  -56.1620  -42.1150 O   0  0
   27.3110  -55.1350  -41.5820 C   0  0
   28.0430  -53.9490  -41.5800 C   0  0
   26.1440  -55.2530  -40.8530 C   0  0
   25.6110  -54.1600  -40.2020 C   0  0
   24.3320  -54.3510  -39.4150 C   0  0
   26.3030  -52.8240  -40.1800 C   0  0  1  0  0  0
   27.5680  -52.8300  -40.9100 C   0  0
   25.3550  -51.8680  -40.9250 C   0  0
   26.6120  -52.5510  -38.6890 C   0  0  1  0  0  0
   27.6440  -53.9090  -38.0680 Cl  0  0
   27.5150  -51.3330  -38.4140 C   0  0  1  0  0  0
   27.1190  -50.1310  -39.0860 O   0  0
   25.2970  -52.5640  -37.8770 C   0  0  1  0  0  0
   24.5770  -53.9060  -37.9780 C   0  0
   25.5960  -52.3060  -36.4060 C   0  0  2  0  0  0
   24.4490  -52.3130  -35.4070 C   0  0
   25.0530  -51.5950  -34.2050 C   0  0  1  0  0  0
   24.8040  -52.5060  -33.0070 C   0  0
   26.3470  -51.0120  -36.1420 C   0  0  1  0  0  0
   27.6710  -51.0570  -36.9170 C   0  0
   25.5320  -49.7410  -36.4600 C   0  0
   26.4900  -51.1550  -34.6200 C   0  0  1  0  0  0
   26.9710  -49.8350  -34.0450 C   0  0
   26.0960  -49.0300  -33.4680 O   0  0
   28.3950  -49.3150  -34.0740 C   0  0
   28.5190  -47.5560  -34.6420 Cl  0  0
   27.4720  -52.1920  -34.3780 O   0  0
   28.2140  -52.5770  -33.1610 C   0  0
   28.2420  -51.9330  -32.1120 O   0  0
   28.9810  -53.8210  -33.1680 C   0  0
   29.2080  -54.7700  -34.1220 C   0  0
   30.0290  -55.6740  -33.4900 C   0  0
   30.2510  -55.2580  -32.1950 C   0  0
   29.5940  -54.0780  -31.9870 O   0  0
  1  2  2  0  0  0
  2  3  1  0  0  0
  2  4  1  0  0  0
  3  8  2  0  0  0
  4  5  2  0  0  0
  5  6  1  0  0  0
  5  7  1  0  0  0
  6 15  1  0  0  0
  7  8  1  0  0  0
  7  9  1  0  0  0
  7 10  1  0  0  0
 10 11  1  0  0  0
 10 12  1  0  0  0
 10 14  1  0  0  0
 12 13  1  0  0  0
 12 21  1  0  0  0
 14 15  1  0  0  0
 14 16  1  0  0  0
 16 17  1  0  0  0
 16 20  1  0  0  0
 17 18  1  0  0  0
 18 19  1  0  0  0
 18 23  1  0  0  0
 20 21  1  0  0  0
 20 22  1  0  0  0
 20 23  1  0  0  0
 23 24  1  0  0  0
 23 28  1  0  0  0
 24 25  2  0  0  0
 24 26  1  0  0  0
 26 27  1  0  0  0
 28 29  1  0  0  0
 29 30  2  0  0  0
 29 31  1  0  0  0
 31 32  2  0  0  0
 31 35  1  0  0  0
 32 33  1  0  0  0
 33 34  2  0  0  0
 34 35  1  0  0  0
M  END
> <Resolution>
1.95

$$$$
5NFP
  DSViewer          3D                             0

 31 35  0  0  0  0  0  0  0  0999 V2000
   -1.4260  -44.8600   -4.0110 C   0  0
   -0.9800  -43.5900   -3.2770 C   0  0
   -1.9610  -42.4780   -3.6390 C   0  0
   -2.1480  -38.9300   -3.5050 C   0  0  1  0  0  0
   -2.6820  -38.4710   -4.8990 C   0  0
   -1.5660  -38.9820   -5.8490 C   0  0  1  0  0  0
   -1.5320  -38.5690   -7.3330 C   0  0  2  0  0  0
   -2.8620  -38.9650   -8.0220 C   0  0
   -2.8530  -38.7130   -9.5550 C   0  0
   -1.5750  -39.3330  -10.1590 C   0  0
    0.8330  -40.5080  -11.2360 C   0  0
    0.9290  -39.6800  -10.2040 C   0  0
   -0.2270  -38.9770   -9.5490 C   0  0  2  0  0  0
    0.8920  -39.3960   -5.7270 C   0  0
    0.2510  -38.4800   -2.5230 C   0  0
    1.6310  -39.0260   -2.2500 C   0  0
    0.0500  -37.0830   -5.0400 C   0  0
   -1.6270  -41.1480   -2.9500 C   0  0  2  0  0  0
   -2.7020  -40.2320   -3.2540 O   0  0
   -1.6920  -40.1700  -11.1930 C   0  0
   -0.4970  -40.8120  -11.7970 C   0  0
   -0.5980  -41.5890  -12.7430 O   0  0
   -0.3390  -39.3260   -8.0260 C   0  0  1  0  0  0
    1.0190  -39.1740   -7.2560 C   0  0  1  0  0  0
   -0.2520  -38.6200   -5.0580 C   0  0  1  0  0  0
   -0.5980  -39.1290   -3.6230 C   0  0  2  0  0  0
   -0.4390  -40.5650   -3.5400 O   0  0
   -0.1390  -37.5360   -1.8660 O   0  0
    2.4080  -38.0960   -1.5090 O   0  0
    1.6730  -37.9100   -7.4810 O   0  0
    0.0250  -37.4740   -9.8410 C   0  0
  1  2  1  0  0  0
  2  3  1  0  0  0
  3 18  1  0  0  0
  4  5  1  0  0  0
  4 19  1  0  0  0
  4 26  1  0  0  0
  5  6  1  0  0  0
  6  7  1  0  0  0
  6 25  1  0  0  0
  7  8  1  0  0  0
  7 23  1  0  0  0
  8  9  1  0  0  0
  9 10  1  0  0  0
 10 13  1  0  0  0
 10 20  2  0  0  0
 11 12  2  0  0  0
 11 21  1  0  0  0
 12 13  1  0  0  0
 13 23  1  0  0  0
 13 31  1  0  0  0
 14 24  1  0  0  0
 14 25  1  0  0  0
 15 16  1  0  0  0
 15 26  1  0  0  0
 15 28  2  0  0  0
 16 29  1  0  0  0
 17 25  1  0  0  0
 18 19  1  0  0  0
 18 27  1  0  0  0
 20 21  1  0  0  0
 21 22  2  0  0  0
 23 24  1  0  0  0
 24 30  1  0  0  0
 25 26  1  0  0  0
 26 27  1  0  0  0
M  END
> <Resolution>
2.1

$$$$
